<?xml version="1.0" encoding="UTF-8"?>

<!-- generated on 2025-08-18 11:22:41.313042 by randomTrips.py v1_24_0+0000-b72eb3fabc8
<configuration>
    <net-file value="los_angeles\osm.net.xml.gz"/>
    <route-file value="los_angeles\osm.passenger.trips.xml"/>
    <trip-attributes value="departLane=&quot;best&quot; departSpeed=&quot;max&quot;"/>
    <vehicle-class value="passenger"/>
    <remove-loops value="True"/>
    <end value="600.0"/>
    <period value="5.0"/>
</configuration>
-->

<routes xmlns:xsi="http://www.w3.org/2001/XMLSchema-instance" xsi:noNamespaceSchemaLocation="http://sumo.dlr.de/xsd/routes_file.xsd">
    <vType id="passenger" vClass="passenger"/>
    <trip id="0" depart="0.00" from="172877646#4" to="-121934301#0" departLane="best" departSpeed="max" type="passenger"/>
    <trip id="1" depart="5.00" from="-399241924#3" to="-382251676" departLane="best" departSpeed="max" type="passenger"/>
    <trip id="2" depart="10.00" from="382241129#3" to="206375355#1" departLane="best" departSpeed="max" type="passenger"/>
    <trip id="3" depart="15.00" from="1041515647" to="-1314801143#2" departLane="best" departSpeed="max" type="passenger"/>
    <trip id="4" depart="20.00" from="-381454480#0" to="13383094" departLane="best" departSpeed="max" type="passenger"/>
    <trip id="5" depart="25.00" from="-1237353066#1" to="-256114876#0" departLane="best" departSpeed="max" type="passenger"/>
    <trip id="6" depart="30.00" from="185747931#1" to="13467579#1" departLane="best" departSpeed="max" type="passenger"/>
    <trip id="7" depart="35.00" from="-381471424#1" to="161710209#0" departLane="best" departSpeed="max" type="passenger"/>
    <trip id="8" depart="40.00" from="399264541#1" to="-1036765069" departLane="best" departSpeed="max" type="passenger"/>
    <trip id="9" depart="45.00" from="399264512#0" to="27767423" departLane="best" departSpeed="max" type="passenger"/>
    <trip id="10" depart="50.00" from="-405169146#5" to="-165518742#8" departLane="best" departSpeed="max" type="passenger"/>
    <trip id="11" depart="55.00" from="607540259#0" to="-405164501#0" departLane="best" departSpeed="max" type="passenger"/>
    <trip id="12" depart="60.00" from="-13433448#9" to="-13446478#4" departLane="best" departSpeed="max" type="passenger"/>
    <trip id="13" depart="65.00" from="399298553#0" to="161716756#0" departLane="best" departSpeed="max" type="passenger"/>
    <trip id="14" depart="70.00" from="399264524#1" to="381482568#2" departLane="best" departSpeed="max" type="passenger"/>
    <trip id="15" depart="75.00" from="13446478#3" to="66668843" departLane="best" departSpeed="max" type="passenger"/>
    <trip id="16" depart="80.00" from="-603531496#3" to="139639790#1" departLane="best" departSpeed="max" type="passenger"/>
    <trip id="17" depart="85.00" from="399284161#0" to="161930300#1" departLane="best" departSpeed="max" type="passenger"/>
    <trip id="18" depart="90.00" from="399312989" to="161688767#6" departLane="best" departSpeed="max" type="passenger"/>
    <trip id="19" depart="95.00" from="29042913" to="-13325576#1" departLane="best" departSpeed="max" type="passenger"/>
    <trip id="20" depart="100.00" from="-382492647#0" to="-399264808" departLane="best" departSpeed="max" type="passenger"/>
    <trip id="21" depart="105.00" from="-13406071#1" to="-398504283#0" departLane="best" departSpeed="max" type="passenger"/>
    <trip id="22" depart="110.00" from="-13453530#1" to="-399256444#1" departLane="best" departSpeed="max" type="passenger"/>
    <trip id="23" depart="115.00" from="172307068#0" to="-48331378#1" departLane="best" departSpeed="max" type="passenger"/>
    <trip id="24" depart="120.00" from="-518107953" to="-381189081#3" departLane="best" departSpeed="max" type="passenger"/>
    <trip id="25" depart="125.00" from="-398812988" to="603531496#6" departLane="best" departSpeed="max" type="passenger"/>
    <trip id="26" depart="130.00" from="185399253#1" to="161830832#9" departLane="best" departSpeed="max" type="passenger"/>
    <trip id="27" depart="135.00" from="-173717947#3" to="381472818#1" departLane="best" departSpeed="max" type="passenger"/>
    <trip id="28" depart="140.00" from="-167419845#2" to="-603942786#2" departLane="best" departSpeed="max" type="passenger"/>
    <trip id="29" depart="145.00" from="885114074#0" to="173008056#1" departLane="best" departSpeed="max" type="passenger"/>
    <trip id="30" depart="150.00" from="148257320" to="237022758" departLane="best" departSpeed="max" type="passenger"/>
    <trip id="31" depart="155.00" from="399296423#0" to="398800837" departLane="best" departSpeed="max" type="passenger"/>
    <trip id="32" depart="160.00" from="-383920668#3" to="-13279089#1" departLane="best" departSpeed="max" type="passenger"/>
    <trip id="33" depart="165.00" from="-399296446" to="-398815678#0" departLane="best" departSpeed="max" type="passenger"/>
    <trip id="34" depart="170.00" from="-381188583#1" to="603942786#6" departLane="best" departSpeed="max" type="passenger"/>
    <trip id="35" depart="175.00" from="404995541" to="-399296467" departLane="best" departSpeed="max" type="passenger"/>
    <trip id="36" depart="180.00" from="185948967" to="-607576346#5" departLane="best" departSpeed="max" type="passenger"/>
    <trip id="37" depart="185.00" from="47878672#0" to="1237653756#1" departLane="best" departSpeed="max" type="passenger"/>
    <trip id="38" depart="190.00" from="-398812529" to="-398735948#0" departLane="best" departSpeed="max" type="passenger"/>
    <trip id="39" depart="195.00" from="148385513" to="-398812529" departLane="best" departSpeed="max" type="passenger"/>
    <trip id="40" depart="200.00" from="161690254#1" to="438274649#7" departLane="best" departSpeed="max" type="passenger"/>
    <trip id="41" depart="205.00" from="-608730952#5" to="-382209442#2" departLane="best" departSpeed="max" type="passenger"/>
    <trip id="42" depart="210.00" from="976256851" to="13392386#5" departLane="best" departSpeed="max" type="passenger"/>
    <trip id="43" depart="215.00" from="-13430433#1" to="-13326012#0" departLane="best" departSpeed="max" type="passenger"/>
    <trip id="44" depart="220.00" from="-1360202063" to="167413476#1" departLane="best" departSpeed="max" type="passenger"/>
    <trip id="45" depart="225.00" from="398816993#1" to="1050247359#1" departLane="best" departSpeed="max" type="passenger"/>
    <trip id="46" depart="230.00" from="-13376763#6" to="-604060338#0" departLane="best" departSpeed="max" type="passenger"/>
    <trip id="47" depart="235.00" from="967512780#1" to="13433448#6" departLane="best" departSpeed="max" type="passenger"/>
    <trip id="48" depart="240.00" from="648606660" to="399312986#0" departLane="best" departSpeed="max" type="passenger"/>
    <trip id="49" depart="245.00" from="-1078331844#0" to="381243038#8" departLane="best" departSpeed="max" type="passenger"/>
    <trip id="50" depart="250.00" from="234657817" to="13451741#5" departLane="best" departSpeed="max" type="passenger"/>
    <trip id="51" depart="255.00" from="-398812986#1" to="173717947#1" departLane="best" departSpeed="max" type="passenger"/>
    <trip id="52" depart="260.00" from="-1378030849" to="1111525991#0" departLane="best" departSpeed="max" type="passenger"/>
    <trip id="53" depart="265.00" from="404995540#3" to="-398812542#0" departLane="best" departSpeed="max" type="passenger"/>
    <trip id="54" depart="270.00" from="13376156#0" to="-185948992#0" departLane="best" departSpeed="max" type="passenger"/>
    <trip id="55" depart="275.00" from="47798524#2" to="403672894#1" departLane="best" departSpeed="max" type="passenger"/>
    <trip id="56" depart="280.00" from="-399276126#1" to="172889577#2" departLane="best" departSpeed="max" type="passenger"/>
    <trip id="57" depart="285.00" from="161830827#7" to="-165518733#1" departLane="best" departSpeed="max" type="passenger"/>
    <trip id="58" depart="290.00" from="398683386#4" to="13456380#0" departLane="best" departSpeed="max" type="passenger"/>
    <trip id="59" depart="295.00" from="398807768#2" to="13434749#0" departLane="best" departSpeed="max" type="passenger"/>
    <trip id="60" depart="300.00" from="-1005462760" to="-399306100#0" departLane="best" departSpeed="max" type="passenger"/>
    <trip id="61" depart="305.00" from="-1132692542" to="524476365#0" departLane="best" departSpeed="max" type="passenger"/>
    <trip id="62" depart="310.00" from="405164495" to="399284191" departLane="best" departSpeed="max" type="passenger"/>
    <trip id="63" depart="315.00" from="-399284203#1" to="-13353869#5" departLane="best" departSpeed="max" type="passenger"/>
    <trip id="64" depart="320.00" from="405162890#0" to="604086176#1" departLane="best" departSpeed="max" type="passenger"/>
    <trip id="65" depart="325.00" from="-13415337#7" to="13344342#1" departLane="best" departSpeed="max" type="passenger"/>
    <trip id="66" depart="330.00" from="-13382977#3" to="398682107#1" departLane="best" departSpeed="max" type="passenger"/>
    <trip id="67" depart="335.00" from="398735939#1" to="-161710209#0" departLane="best" departSpeed="max" type="passenger"/>
    <trip id="68" depart="340.00" from="13300770#5" to="1377994585" departLane="best" departSpeed="max" type="passenger"/>
    <trip id="69" depart="345.00" from="1046059232#0" to="-381206060#0" departLane="best" departSpeed="max" type="passenger"/>
    <trip id="70" depart="350.00" from="13453530#1" to="381494372#0" departLane="best" departSpeed="max" type="passenger"/>
    <trip id="71" depart="355.00" from="-278481934" to="-399296418" departLane="best" departSpeed="max" type="passenger"/>
    <trip id="72" depart="360.00" from="964282967#1" to="185948936" departLane="best" departSpeed="max" type="passenger"/>
    <trip id="73" depart="365.00" from="1111771766" to="13407273#2" departLane="best" departSpeed="max" type="passenger"/>
    <trip id="74" depart="370.00" from="-161689816#2" to="-382439721#5" departLane="best" departSpeed="max" type="passenger"/>
    <trip id="75" depart="375.00" from="-405162889" to="161708077" departLane="best" departSpeed="max" type="passenger"/>
    <trip id="76" depart="380.00" from="-384818062" to="-382215621#1" departLane="best" departSpeed="max" type="passenger"/>
    <trip id="77" depart="385.00" from="-13389700#0" to="167419845#1" departLane="best" departSpeed="max" type="passenger"/>
    <trip id="78" depart="390.00" from="-383920668#2" to="456584287#0" departLane="best" departSpeed="max" type="passenger"/>
    <trip id="79" depart="395.00" from="399311986#2" to="-13389769#3" departLane="best" departSpeed="max" type="passenger"/>
    <trip id="80" depart="400.00" from="-398531874#1" to="186076390#1" departLane="best" departSpeed="max" type="passenger"/>
    <trip id="81" depart="405.00" from="-381213447#0" to="-161713713#0" departLane="best" departSpeed="max" type="passenger"/>
    <trip id="82" depart="410.00" from="581407415" to="161687300#6" departLane="best" departSpeed="max" type="passenger"/>
    <trip id="83" depart="415.00" from="13290563" to="398812541#1" departLane="best" departSpeed="max" type="passenger"/>
    <trip id="84" depart="420.00" from="399264527#1" to="-23147344#0" departLane="best" departSpeed="max" type="passenger"/>
    <trip id="85" depart="425.00" from="-13440691#9" to="1084668649" departLane="best" departSpeed="max" type="passenger"/>
    <trip id="86" depart="430.00" from="1047110571#2" to="13282986#1" departLane="best" departSpeed="max" type="passenger"/>
    <trip id="87" depart="435.00" from="381464015#1" to="190478685#0" departLane="best" departSpeed="max" type="passenger"/>
    <trip id="88" depart="440.00" from="834834878#0" to="-13451741#1" departLane="best" departSpeed="max" type="passenger"/>
    <trip id="89" depart="445.00" from="-727977605#1" to="-405169156" departLane="best" departSpeed="max" type="passenger"/>
    <trip id="90" depart="450.00" from="399312989" to="-398738129#0" departLane="best" departSpeed="max" type="passenger"/>
    <trip id="91" depart="455.00" from="-190478685#2" to="1194238929#1" departLane="best" departSpeed="max" type="passenger"/>
    <trip id="92" depart="460.00" from="1041515647" to="-399259647#0" departLane="best" departSpeed="max" type="passenger"/>
    <trip id="93" depart="465.00" from="-398735952#6" to="518244671#0" departLane="best" departSpeed="max" type="passenger"/>
    <trip id="94" depart="470.00" from="1127429323" to="399312988#1" departLane="best" departSpeed="max" type="passenger"/>
    <trip id="95" depart="475.00" from="1364763849" to="-13344342#2" departLane="best" departSpeed="max" type="passenger"/>
    <trip id="96" depart="480.00" from="997222142#0" to="399294709#0" departLane="best" departSpeed="max" type="passenger"/>
    <trip id="97" depart="485.00" from="648604240" to="521802279#7" departLane="best" departSpeed="max" type="passenger"/>
    <trip id="98" depart="490.00" from="399301456#0" to="-172877644#6" departLane="best" departSpeed="max" type="passenger"/>
    <trip id="99" depart="495.00" from="13337632#1" to="-381243039#1" departLane="best" departSpeed="max" type="passenger"/>
    <trip id="100" depart="500.00" from="-670919153#1" to="-13358149#2" departLane="best" departSpeed="max" type="passenger"/>
    <trip id="101" depart="505.00" from="-603531497#2" to="847078182#2" departLane="best" departSpeed="max" type="passenger"/>
    <trip id="102" depart="510.00" from="-398812537#1" to="398812529" departLane="best" departSpeed="max" type="passenger"/>
    <trip id="103" depart="515.00" from="1209491415#9" to="1051299940#1" departLane="best" departSpeed="max" type="passenger"/>
    <trip id="104" depart="520.00" from="607540259#1" to="964282967#4" departLane="best" departSpeed="max" type="passenger"/>
    <trip id="105" depart="525.00" from="148252666" to="381206059#0" departLane="best" departSpeed="max" type="passenger"/>
    <trip id="106" depart="530.00" from="-165518733#10" to="-399276129" departLane="best" departSpeed="max" type="passenger"/>
    <trip id="107" depart="535.00" from="641099431" to="161689804#14" departLane="best" departSpeed="max" type="passenger"/>
    <trip id="108" depart="540.00" from="13459073#4" to="398423717#0" departLane="best" departSpeed="max" type="passenger"/>
    <trip id="109" depart="545.00" from="-13352495#0" to="161707982#0" departLane="best" departSpeed="max" type="passenger"/>
    <trip id="110" depart="550.00" from="13377551#4" to="399303654#3" departLane="best" departSpeed="max" type="passenger"/>
    <trip id="111" depart="555.00" from="-165518742#8" to="607576332#9" departLane="best" departSpeed="max" type="passenger"/>
    <trip id="112" depart="560.00" from="-13406947#0" to="-186076398#4" departLane="best" departSpeed="max" type="passenger"/>
    <trip id="113" depart="565.00" from="161713716#1" to="206372064#4" departLane="best" departSpeed="max" type="passenger"/>
    <trip id="114" depart="570.00" from="-398520217#1" to="-161689817#4" departLane="best" departSpeed="max" type="passenger"/>
    <trip id="115" depart="575.00" from="405180168#2" to="-398735945" departLane="best" departSpeed="max" type="passenger"/>
    <trip id="116" depart="580.00" from="161713713#0" to="165262582#1" departLane="best" departSpeed="max" type="passenger"/>
    <trip id="117" depart="585.00" from="1035902839" to="161707948#1" departLane="best" departSpeed="max" type="passenger"/>
    <trip id="118" depart="590.00" from="13415330#1" to="579163503#2" departLane="best" departSpeed="max" type="passenger"/>
    <trip id="119" depart="595.00" from="-306487260" to="381189081#4" departLane="best" departSpeed="max" type="passenger"/>
</routes>
