<?xml version="1.0" encoding="UTF-8"?>

<!-- generated on 2025-08-18 11:21:46.757157 by randomTrips.py v1_24_0+0000-b72eb3fabc8
<configuration>
    <net-file value="new_york\osm.net.xml.gz"/>
    <route-file value="new_york\osm.passenger.trips.xml"/>
    <trip-attributes value="departLane=&quot;best&quot; departSpeed=&quot;max&quot;"/>
    <vehicle-class value="passenger"/>
    <remove-loops value="True"/>
    <end value="600.0"/>
    <period value="5.0"/>
</configuration>
-->

<!-- generated on 2025-08-18 11:21:46 by Eclipse SUMO duarouter Version 1.24.0
<duarouterConfiguration xmlns:xsi="http://www.w3.org/2001/XMLSchema-instance" xsi:noNamespaceSchemaLocation="http://sumo.dlr.de/xsd/duarouterConfiguration.xsd">

    <input>
        <net-file value="new_york\osm.net.xml.gz"/>
        <route-files value="trips.trips.xml"/>
    </input>

    <output>
        <output-file value="new_york\osm.passenger.trips.xml"/>
        <alternatives-output value="NUL"/>
    </output>

    <processing>
        <remove-loops value="true"/>
    </processing>

    <time>
        <begin value="0.0"/>
        <end value="600.0"/>
    </time>

    <report>
        <no-warnings value="true"/>
        <ignore-errors value="true"/>
        <no-step-log value="true"/>
    </report>

</duarouterConfiguration>
-->

<routes xmlns:xsi="http://www.w3.org/2001/XMLSchema-instance" xsi:noNamespaceSchemaLocation="http://sumo.dlr.de/xsd/routes_file.xsd">
    <vType id="passenger" vClass="passenger"/>
    <vehicle id="0" type="passenger" depart="0.00" departLane="best" departSpeed="max">
        <route edges="467222856#0 1081824061#0 1254240540#0 1316839634#2 1316839635#1 5672871#2 5672871#5 496980200#16 496980200#19 420352246#0 681064391 420352243#0 420358898#0 420358898#4 420358898#6 439933947#0 420358892#0 420358896#0 420358896#2 5673093#4 5673093#6 -1315845433#2 -1316835906 -276670360#2 -945523294#2 -1315845428#2 -1315845427#2"/>
    </vehicle>
    <vehicle id="1" type="passenger" depart="5.00" departLane="best" departSpeed="max">
        <route edges="1306214130 1306277592 420895277#0 992132288#0 1313892250 420895276#0 308322431#0 1118588273#0 1187622115 1187622116 1031978967#0 1306277587#0 1306277588#0 34625443#0 34625443#2 420522050#1 95181768#0 95181768#3 420809434#0 1328164798 1314051807#1 480112484#0 116672642#0 932944325#0 932944326#0 932944326#1 1003466060#0 46139034#0 46139034#2 46139034#5 466956271#0 466956276#0 989381742#0 466956272#0 421832644#1 539024459#0 539024459#4 539024459#7 1032481034#0 68668546#0 68668546#3 1032481037#0 584850104#0 584850104#3 944692442#0 439842823#0 439842831#0 439842831#3 439842831#6 439842831#9 675967322#0 1032459844#0 880256646#0 226041016#0 226041016#4 68668559#0 68668559#3 68668559#6 194923770 46201679#0 1188730093#0 1189567313#0 1189567313#5"/>
    </vehicle>
    <vehicle id="2" type="passenger" depart="10.00" departLane="best" departSpeed="max">
        <route edges="5670172#3 5670172#6 464522037#6 464522037#9 5673093#0 420358896#5 420358896#7 420358897#0 905095202#0 451904646#0 196117006#0 438389785#0 496992369#0 496992369#5 496992369#10 496992369#15 496992369#20 5671774#0 5671774#3 5671774#6 5671774#11 5671774#16 1316299815#0 814612602#0 814612602#3 814612602#8 814612602#13 814612602#18 489019754#0 221157083#0 496986905#0"/>
    </vehicle>
    <vehicle id="3" type="passenger" depart="15.00" departLane="best" departSpeed="max">
        <route edges="25199883#9 25199883#12 157012386#17 157012386#19 653428657#0 957085298 957085297 421825693#0 420352246#0 681064391 420352243#0 181375404#0 181375404#3 5670092#4 5670092#7 5670092#10 5670092#13 5670092#16 5670092#19 5670092#22 1343029771#0 1343029771#3 1329369155#0 1329369155#2 1135342273#0 1329887723 1329583056"/>
    </vehicle>
    <vehicle id="4" type="passenger" depart="20.00" departLane="best" departSpeed="max">
        <route edges="1184480986#0 388281631#0 1127572732#0 1127572723#0 1127576696#0 1135576504#0 1148931681#0 5670267#0 1032502936#0 129834316#0 129834316#2 129834316#3 1015379882#0 5672027#0 1329384424#0 1015379883#0 1015379883#1 413052676#0 1329880548 1053552023 837515831#0 195743264#0 195743264#2 438900013#0 1021063591 420809440#0 195743228#0 421832645#0 222299274#0 1341647375#0 195743229#0 195743226#0 516664210#0 516664206#0 413050334#0 1362576631#0 1362576631#1 1135361169#0 1135361170#0 496982371#0 588157330 438370108#0 420809441 1362575285#0 420809420#0 420809420#1 420809420#4 420809420#6 195743557#0 195743557#3 195743557#6 195743557#8 195743557#9 420522049#0 1185872416#0 1185872416#3 1314046609#1 5670454#0 159657620#0 439933935#0 962612851#0 962612852 452492203#0 439933934#0 127693384#0 465098295#0 194923811#0 983849667#0 420598345#0 465098276#0 420598337#0 420598356#0"/>
    </vehicle>
    <vehicle id="5" type="passenger" depart="25.00" departLane="best" departSpeed="max">
        <route edges="-1317731495#0 40337681#0 446864090#0 488272734#0 524395517#0 955301424#0 420354140#0 420354141#0 5669892#1 5669892#5 5669892#8 5669892#11 991205021#0 1051858090#0 46348767#0 46348767#4 968737544#0 5669742#0 963551551#0 963551553#0 963551553#2 963551553#3 963551553#5 963551553#8 963551553#11 963551553#14 420810620#0 420810620#1 256902830#0 256902830#3 496982627#0 1330593111#0 196116979#0 196116978#0 1061993519#0 587038049#0 388318981#0 974294810#0 222299275#0 835694479#0 837943499#0 1158491838 1126410086#0 1149014898#0 827979008#0 827979008#2 827979008#4 1128388463#3"/>
    </vehicle>
    <vehicle id="6" type="passenger" depart="30.00" departLane="best" departSpeed="max">
        <route edges="479642035#0 479642035#6 1021949718#0 1021949721#0 1021949723#0 1021949724#0 1021949725#0 1021949727#0 1021949729#0 1021949731#0 1021949733#0 118400726#0 1021949735#0 349873701#0 420356798#0 118400728#0 5671083#0 -1136699160#2 -454963832#2 -1136699159#4 -1136699158#2 -1136699157 -1136699156#2 420354141#0 5669892#1 5669892#5 5669892#8 5669892#11 991205021#0 1051858090#0 944692441#0 46139038#0 46139038#4 1034527687#0 1271581110#0 1271581111#0 46139039#0 46139039#4 46139039#8 46139039#12 46139039#14 194923776#0 1030282418#0 496990369#0 46116314#0 356140737#0 1043517682 507432922#0 1238347039 122660459 122660460#1 432550257 432550256 808611038 808611026 808611026-AddedOffRampEdge 23042516#0 278135785#2 534164487#0 421821527 1255692929 221694587 954503215 421821533#0"/>
    </vehicle>
    <vehicle id="7" type="passenger" depart="35.00" departLane="best" departSpeed="max">
        <route edges="1186021637#1 47796374#0 584971522#0 -656827422#2 421831216#0 1329583840#0 1156810185#0 1091399056#0 5672925#0 420888144#0 413203693 1227811507 420888152 5672244 438362423#0 1332829786#0 1332829786#1 438363729 1015379883#0 1015379883#1 413052676#0 1329880548 1053552023 837515831#0 195743264#0 195743264#2 438900013#0 1021063591 420809440#0 -46160106 5669829#0 -1068067608 46165807#3 46165807#4"/>
    </vehicle>
    <vehicle id="8" type="passenger" depart="40.00" departLane="best" departSpeed="max">
        <route edges="5672578#0 420809417#2 420809409#0 1202586285#0 1202586284#0 1202586284#2 1202586284#3 1314051815 1314051814#0 1202586283#0 1202586282#0 1202586282#3 1202586282#6 1202586282#9 1202586282#13 1202586281#1 5673102#9 125479715#3 125479715#6 125479715#9 125479715#12 5670454#0 159657620#0 439933935#0 962612851#0 962612852 452492203#0 439933934#0 127693384#0 465098295#0 -1080982439#1"/>
    </vehicle>
    <vehicle id="9" type="passenger" depart="45.00" departLane="best" departSpeed="max">
        <route edges="5672402#2 -125525171#4 799813242#0 799813242#2 945127744#0 -1332816973 40879216#0 40879216#1 -5671197#2 -1334159477 -1080978586#3 -1080978586#1 19726366#0 5672986#2 533472943#0 533472943#1"/>
    </vehicle>
    <vehicle id="10" type="passenger" depart="50.00" departLane="best" departSpeed="max">
        <route edges="157012398#3 5672040#0 5672040#3 727644280#0 727644280#3 5673614 352705238#0 352705238#2 352705238#5 464522037#12 464522037#15 464522037#18 653428657#0 957085298 957085297 421825693#0 1205533071#0 968737540#0 968737542#0 968737544#0 584850104#0 584850104#3 46139038#0 46139038#4 1034527687#0"/>
    </vehicle>
    <vehicle id="11" type="passenger" depart="55.00" departLane="best" departSpeed="max">
        <route edges="954178925#0 5673523#0 420598236#0 378363223#0 420598294#0 420598256#0 420598270#0 420598262#0 420598248#0 1021949719#0 1021949721#0 1021949723#0 1021949722#0 1021949722#2 767398934#0 945473888#0 767398933#0 653471089#0 5673533 653471090#0 1315847472#4 464522037#0 464522037#3 464522037#6 464522037#9 464522037#12 464522037#15 464522037#18 157012386#21 157012386#23"/>
    </vehicle>
    <vehicle id="12" type="passenger" depart="60.00" departLane="best" departSpeed="max">
        <route edges="-505598707#1 -591772210#11 1271581110#0 1271581111#0 46139039#0 46139039#4 46139039#8 46139039#12 46139039#14 194923776#0 1030282418#0 496990369#0 46116314#0 356140737#0 1043517682 507432922#0 507432922#2 420888147#0 455501328#0 413056164#0 194923759 388318981#0 974294810#0 222299275#0 835694479#0 837943499#0 1158491838 1126410086#0 1149014898#0 827979008#0 827979008#2 827979008#4 1128388463#3 737431023 825365735#0 -1156810185#2 -1329583840#2 -413212450#1 -5669933#1 -5670205#1"/>
    </vehicle>
    <vehicle id="13" type="passenger" depart="65.00" departLane="best" departSpeed="max">
        <route edges="588168464#0 464515614#0 464515614#3 464515614#6 464515614#9 587061854#0 68668552#0 788602259 22898643 1224492208 788602263#0 1088320654#0 428569356#0 420598373#0 -1088320653#2 -1088320651#2 -1088320650#2 -1088320649#2 -489019753 157014136#0 46334599#11"/>
    </vehicle>
    <vehicle id="14" type="passenger" depart="70.00" departLane="best" departSpeed="max">
        <route edges="5672450#0 5672450#2 1266830890#0 34080062#4 5670771#0 847952489#0 1316057256#0 464683329#12 464683328#0 464683317#0 464683327#0 923090985#3 420598402#0 421825692#0 421825692#3 421825692#6 421825692#9 5669962#8 5669962#10 5669962#11 5669962#14 -496992369#4 -438389785#2 584971395#0 630828592#3 1315845427#0 1315845428#0 945523294#0 276670360#0 1316835906 1315845433#0 5670594#0 5670594#4 5670594#8 349873702#0 420355076#0 40709921#0 1343731013#0 112116234#0 112116234#4 112116234#8 420355077#0 165777195#0 997125811#0 675967321#0 420355081#0 1238545752#0 1333472258#0 496982789#0 496982789#4 165775306#0 -421824309#2 196117014 1156469033#0 -1238431028#2 5670058#3"/>
    </vehicle>
    <vehicle id="15" type="passenger" depart="75.00" departLane="best" departSpeed="max">
        <route edges="438370108#0 420809441 1362575285#0 420809420#0 420809420#1 420809420#4 420809420#6 195743557#0 195743557#3 195743557#6 195743557#8 195743557#9 420522049#0 420522049#2 420522049#3 420522049#6 473884145#0 505776502 1059329369 1021037338 1187622117#0 564392620 46334603#0 22909152#0 485556247#0 194923800#2 194923800#7 127693200#0 127693200#3 127693200#5 22914181#0 963575585#0"/>
    </vehicle>
    <vehicle id="16" type="passenger" depart="80.00" departLane="best" departSpeed="max">
        <route edges="216959248#0 216959250#0 216959250#3 480112481#0 480112481#2 195743556#0 195743556#2 195743556#3 727649620#1 5669962#0 5672896#8 5672896#11 5671429#3 5671429#6 5671429#8 5671429#11 5671429#15 1029629817#0 1029629816#0 955261513#3 955261511#0 420598232#0 420872180#0 954955253#0 451808494#0"/>
    </vehicle>
    <vehicle id="17" type="passenger" depart="85.00" departLane="best" departSpeed="max">
        <route edges="5673427#0 5669860#2 5669860#3 1039050546 801918545#0 492148701#0 492148701#2 1098734620#0 1098734620#2 420351725#0 420351719 421825696 456313635 199927849#0 420351724#0 420351721#0 993797879 195745916#0 903593425#0 993797880#0 5671111#0 992405802#0 992405802#3 1351956735#0 439842757#0 165777951#0 165777951#4 -1315845433#2 -1316835906 -276670360#2 -945523294#2 -1315845428#2 467523298#0 653534688#1 5672178#0 653471088#0 439933928#0 439933928#3 1144268432#0 5672176#0 1315848397#0 420598310#0 5670522#0 5670522#4 420520113#0 420520113#4 420520112#1 505600307#0 889114533#3 464683316#0 464683316#3"/>
    </vehicle>
    <vehicle id="18" type="passenger" depart="90.00" departLane="best" departSpeed="max">
        <route edges="653534688#1 196117006#0 584971395#0 630828592#3 1315845427#0 1315845428#0 945523294#0 276670360#0 1316835906 1315845433#0 5670594#0 1202571928#0 5669978#0 5669978#3 5669978#5 464522037#15 464522037#18 653428657#0 957085298 957085297 421825693#0 1205533071#0 968737540#0 968737542#0 968737543#0 968737543#4 968737543#8 968737543#12 5671291#0 5671291#4 256902825#0 421832644#1 421832644#4 653406301#0 1342197776 412876925#0 421832641#0 420809417#0 420809417#2 420809409#0 1254245277 607091411#3 607091411#6 22927411#4 22927411#6 46139040#0"/>
    </vehicle>
    <vehicle id="19" type="passenger" depart="95.00" departLane="best" departSpeed="max">
        <route edges="541346246#4 541346246#5 46139039#8 46139039#12 46139039#14 194923776#0 1030282418#0 496990369#0 46116314#0 356140737#0 1043517682 507432922#0 1238347039 122660459 122660460#1 432550257 432550256 808611038 808611026 808611026-AddedOffRampEdge 23042516#0 278135785#2 46819907#0 957048347 440633442#0 1256341438#0 23168567#2 221694588#3 1111914323#1 239626771#0 905906565#0 177127299#0 221605487#3"/>
    </vehicle>
    <vehicle id="20" type="passenger" depart="100.00" departLane="best" departSpeed="max">
        <route edges="68674968#11 989793295#0 68674965#0 573476359#0 464683341#0 464683341#4 464683341#8 464683339#0 464683339#4 464683339#8 464683319#0 464683336#0 525768550#0 464683329#0 464683329#4 464683329#8 464683329#12 464683328#0 464683317#0 464683327#0 923090985#3 420598402#0 421825692#0 421825692#3 421825692#6 421825692#9 1315847472#0 1315847472#4 464522037#0 464522037#3 464522037#6 464522037#9 464522037#12 464522037#15 464522037#18 653428657#0 957085298 957085297 421825693#0 1205533071#0 968737540#0 968737542#0 968737543#0 1316839633#1"/>
    </vehicle>
    <vehicle id="21" type="passenger" depart="105.00" departLane="best" departSpeed="max">
        <route edges="-46166212#2 5671436#5 1329353970#0 1128388463#3 737431023 825365735#0 1091399056#0 5672925#0 420888144#0 993793442#0 46160404#0 1203376572"/>
    </vehicle>
    <vehicle id="22" type="passenger" depart="110.00" departLane="best" departSpeed="max">
        <route edges="-5670924#1 1080982434#0 5672434 1080982435#0 496978510#0 347306313#0 496993765#3 852992099#0 196117091#0 5669806#6 1262278384#0 -611258687#3 480112475#0 480112475#2 496985714#0 1314038747#0"/>
    </vehicle>
    <vehicle id="23" type="passenger" depart="115.00" departLane="best" departSpeed="max">
        <route edges="46629376#0 46629376#1 964220271 964220270#0 730300445#0 730300445#3 730300445#6 730300445#9 -263088941#1 -5670709#1 1298186396 1188730152#0 5670574#0 1188730085#0 1188730086#3 281455419#0 1188730090#0 1188730091 -46201679#2 -420354362#1 -68668559#8 -68668559#5 845740587#0 1156475211#0 488272734#0 221687790#0 970628513 970628514#0 221687792#0 221687792#3 814840328#0 814840327 620939495#0 992405802#0 992405802#3 1351956735#0 439842757#0 165777951#0 1202571928#0 5669978#0 5669978#3 5669978#5 5670897#0 1296083558#0 706833045#1 706833045#2 706833046#0 706833046#3 706833046#6 706833047#0 433124968#6 433124968#9 433124968#12 433124968#15 -5670087#3 -492148705#4 195743556#0"/>
    </vehicle>
    <vehicle id="24" type="passenger" depart="120.00" departLane="best" departSpeed="max">
        <route edges="196116974#4 420522049#3 420522049#6 95181768#3 420809434#0 420809445#0 420809438#0 420809448#0 1049852135 420809443#0 420809439#0 420809446#0 420809442 516664207#0 412875705#0 438367286#0 1113267323#0 1113267323#1 420809421 -226040986#1 -127690685#2 -524816751#2 -1333725593#1 -1333725594#0 -1010159653#1 -837450655 1330612923 356140737#0 1043517682 507432922#0 1238347039 122660459 122660460#1 432550257 432550256 808611038 808611026 808611026-AddedOffRampEdge 534164486#0 5678759#1 5678759#4 46835371#0 1155451378#0"/>
    </vehicle>
    <vehicle id="25" type="passenger" depart="125.00" departLane="best" departSpeed="max">
        <route edges="127691872#0 127691872#3 127691872#6 1156474000#0 955301424#0 420354140#0 420354141#0 505772014#0 439842754#0 165777255#0 165777255#4 439842751 439842761#0 1351956735#0 439842757#0 165777951#0 1202571928#0 5669978#0 5669978#3 5669978#5 5670897#0 1296083558#0 706833045#1 706833045#2 706833046#0 706833046#3 706833046#6 706833047#0 433124968#6 433124968#9 433124968#12 433124968#15 -5670087#3 -492148705#4 420522443#0 420522443#4 525033953#0 5669953#0 852992109#0 852992104"/>
    </vehicle>
    <vehicle id="26" type="passenger" depart="130.00" departLane="best" departSpeed="max">
        <route edges="474635904#0 196117032 663634122#0 663634122#2 663634122#5 663634122#8 663634122#11 663797737#0 663797739#0 492148703#0 492148703#3 46610727#0 46610727#2 968388394#0 968388395#0 420530113#0 991176567#0 5673342#0 932944326#0 932944326#1 1003466060#0 46139034#0 46139034#2 46139034#5 466956271#0 466956276#0 989381742#0 466956272#0 421832644#1 539024459#0 539024459#4 539024459#7 1032481034#0 68668546#0 68668546#3 1032481037#0 584850104#0 584850104#3 944692442#0 439842823#0 439842831#0 439842831#3 439842831#6 439842831#9 675967322#0 1032459844#0 880256646#0 226041016#0 226041016#4 68668559#0 68668559#3 68668559#6 194923770 46201679#0 1188730093#0 1189567313#0 -5670574#1 -1188730152#1 -895349521#1 5670709#0 1298186395 739591695#3 125525165#0 125525165#2 -46348787#4"/>
    </vehicle>
    <vehicle id="27" type="passenger" depart="135.00" departLane="best" departSpeed="max">
        <route edges="1051841855#0 1051841855#4 1316061296#0 1316060557#0 1316060558#0 5672487#1 5672487#4 587061854#0 68668552#0 5672965#0 895348610#0 895348610#2 895348610#4 34080508#0 68668541#0 541330444#0 156994961#0 813970416#4 852992107#0 852992111#0 852992111#3 852992100#0 852992102#0 852992102#3 852992108#0 496993765#0 496993765#3 852992099#0 196117091#0 5669806#6 1262278384#0 -611258687#3 480112475#0 480112475#2 496985714#0 1314038747#0 196117028#7 5670012#3"/>
    </vehicle>
    <vehicle id="28" type="passenger" depart="140.00" departLane="best" departSpeed="max">
        <route edges="1040863519#0 -5671774#20 -5671774#15 -5671774#10 -5671774#5 -5671774#2 -496992369#24 -496992369#19 -496992369#14 -496992369#9 -496992369#4 -438389785#2 584971395#0 630828592#3 1315845427#0 1315845428#0 945523294#0 276670360#0 1316835906 1315845433#0 5670594#0 5670594#4 5670594#8 349873702#0 420355076#0 524387550#0 457937084#0 1267527730#0 993797882 420352240#0 834238142#0 834238142#2 834238142#4 221687788#0"/>
    </vehicle>
    <vehicle id="29" type="passenger" depart="145.00" departLane="best" departSpeed="max">
        <route edges="989390263 870681744 989390266 195743196 1080964112 32934358#1 32934358#2 32934358#3 32934358#4 1080964111 1080964113#0 1080964113#1 958158459 1329564964 32934355 958203289 25561915 25564137 524361790 5669420#0 1328731144 432550257 432550256 808611038 808611026 808611026-AddedOffRampEdge 23042516#0 278135785#2 46819907#0 957048347 440633442#0 1256341438#0 23168567#2 221694588#3 1111914323#1 239626771#0 905906565#0 177127299#0 221605487#3 221605487#6 468016990#0 468016991#1"/>
    </vehicle>
    <vehicle id="30" type="passenger" depart="150.00" departLane="best" departSpeed="max">
        <route edges="451954041#0 451954041#3 560788343#0 496977101#0 496977101#4 912475761#0 1156475401#0 1317731496#0 40337681#0 446864090#0 488272734#0 524395517#0 955301424#0 420354140#0 420354141#0 505772014#0"/>
    </vehicle>
    <vehicle id="31" type="passenger" depart="155.00" departLane="best" departSpeed="max">
        <route edges="-584971516#1 5671458#0 196117059#0 222299274#0 1341647375#0 195743229#0 195743226#0 516664210#0 516664206#0 413050334#0 1362576631#0 1362576631#1 1135361169#0 1135361170#0 496982371#0 588157330 5671028#0 46350707#0 1202586284#0 5671327#0"/>
    </vehicle>
    <vehicle id="32" type="passenger" depart="160.00" departLane="best" departSpeed="max">
        <route edges="1202586279#0 420809412 420809439#0 420809446#0 420809442 516664207#0 412875705#0 438367286#0 1113267323#0 1113267323#1 420809421 420772654#0 978439270#0 475867321#0 1021042405 420809425#0 222299273#0 978431658#0 978431658#1 1053554760#0 195743227 1334982040 1053554762#0 195743225#0 1329888759 837515833#0 837515833#1 46422586#0 614853315#0 614853315#1 1230733694 1067728687#0 -1203376569#2 -1203376570#2 -1332815418#1"/>
    </vehicle>
    <vehicle id="33" type="passenger" depart="165.00" departLane="best" departSpeed="max">
        <route edges="1333699601 -1252123718#1 127691870#0 127691871#0 127691872#0 127691872#3 127691872#6 1156474000#0 955301424#0 420354140#0 420354141#0 505772014#0 439842754#0 165777255#0 165777255#4 439842751 439842761#0 1351956735#0 439842757#0 165777951#0 1202571928#0 5669978#0 5669978#3 5669978#5 5670897#0 1296083558#0 706833045#1 706833045#2 706833046#0 706833046#3 706833046#6 706833047#0 433124968#6 433124968#9 433124968#12 433124968#15 -5670087#3 -492148705#4 420522443#0 420522443#4 525033953#0 195743555#0 195743555#2 611258687#0 611258687#2 46609036#0 465098295#0 194923811#0 983849667#0 420598345#0 465098276#0 420598337#0 420598356#0 465098271#0 420598335#0 420598349#0 465098285#0 420598333#0 156994969#0 465098290#0 420598339#0 420598366#0 420598366#4 420598332#0 630828583#0 127693383#0 127693383#3"/>
    </vehicle>
    <vehicle id="34" type="passenger" depart="170.00" departLane="best" departSpeed="max">
        <route edges="1151034558#2 447018423#4 -524610937#1 -525656847#2 -525656852#1 -525658419#1 -1335332353#1 -525038147#2 -1333741753#1 -438366913#0 -1135361330#1 524361790 -630828599 -496990645 420890074#0 5671717 1333438296#0 1333438296#2 1333438297#2 42786502#0 414751458#0 196116989#0 1332825247 1329595924 46154285#0 496982787#0 420355083#0 -1238545752#3 -420355081#4 -675967321#4 -997125811#4 -165777195#2 165777194#0 505772014#0 439842754#0 165777255#0 165777255#4 439842751 439842761#0 1351956735#0 439842757#0 165777951#0 165777951#4 -1315845433#2 -1316835906 -276670360#2 -945523294#2 -1315845428#2 467523298#0 653534688#1 5672178#0 653471088#0 439933928#0 439933928#3 1144268432#0 5672176#0 1315848397#0 420598310#0 5670522#0 5670522#4 464683323#0 5671459#0 1032043567#0 1032043567#1 889114533#9"/>
    </vehicle>
    <vehicle id="35" type="passenger" depart="175.00" departLane="best" departSpeed="max">
        <route edges="68668562#0 68668562#2 -524816751#2 -1333725593#1 -1333725594#0 -1010159653#1 -837450655 1330612923 356140737#0 1043517682 507432922#0 507432922#2 420888147#0 1334212776#0 5671593 526503346#2 524363437#0 524363437#2 414743582#0 414743582#1 1329395987 1333735828#0"/>
    </vehicle>
    <vehicle id="36" type="passenger" depart="180.00" departLane="best" departSpeed="max">
        <route edges="480112479#0 -420522443#5 -420522443#3 195743556#0 195743556#2 195743556#3 727649620#1 5669962#0 5672896#8 5672896#11 5671429#3 5671429#6 5671429#8 5671429#11 5671429#15 1029629817#0 1029629816#0 955261513#3 955261511#0 420598232#0 420872180#0 954955253#0 954955254#0 954955255#0 954955256#0 954955256#2 954955257 420872176#0 22897633#0 22897633#3"/>
    </vehicle>
    <vehicle id="37" type="passenger" depart="185.00" departLane="best" departSpeed="max">
        <route edges="843553759#2 1333435320#1 414894542#0 414894542#1 414894542#3 1335381157 165775306#0 222299242#0 -414751458#2 -42786502#2 -1333438297#3 -1333438297#1 -1333438296#1 -1329888403#1 -420890077#1 496990645 414744944 5669420#0 1328731144 432550257 432550256 808611038 808611026 808611026-AddedOffRampEdge 23042516#0 278135785#2 534164487#0 421821527 1255692929 964554758#0 46819916#0 39513387#0"/>
    </vehicle>
    <vehicle id="38" type="passenger" depart="190.00" departLane="best" departSpeed="max">
        <route edges="1271746675 1271746676#0 464683329#8 464683329#12 464683328#0 464683317#0 464683327#0 923090985#3 420598402#0 421825692#0 421825692#3 421825692#6 421825692#9 5669962#8 5669962#10 5669962#11 5669962#14 -496992369#4 -438389785#2 584971395#0 630828592#3 1315845427#0 1315845428#0 945523294#0 276670360#0 1316835906 1315845433#0 5670594#0 5670594#4 5670594#8 349873702#0 420355076#0 40709921#0 1343731013#0 112116234#0 112116234#4 112116234#8 420355077#0 165777195#0 997125811#0 675967321#0 420355081#0 1238545752#0 1333472258#0 496982789#0 496982789#4 165775306#0 222299242#0 -414751458#2 -42786502#2 -1333438297#3 -1333438297#1 -1333438296#1 1238431052#0"/>
    </vehicle>
    <vehicle id="39" type="passenger" depart="195.00" departLane="best" departSpeed="max">
        <route edges="455501328#0 413056164#0 194923759 46116329#0 1341270468 222299238#0 1333440868#0 891074599#0 770524299#0 770524299#3 1021063591 420809440#0 195743228#0 421832645#0 222299274#0 1341647375#0 195743229#0 195743226#0 516664210#0 516664206#0 413050334#0 1362576631#0 1362576631#1 1135361169#0 1135361170#0 496982371#0 588157330 438370108#0 420809441 1362575285#0 420809420#0 420809420#1 420809420#4 420809420#6 195743557#0 195743557#3 195743557#6 195743557#8 195743557#9 420522049#0 420522049#2 420522049#3 420522049#6 473884145#0 505776502 1059329369 1021037338 1187622117#0 34625442 1189989592#0 194923802#0 1365934739#0 992132287 1306214131#0 194923801#0 194923801#1 1306277595 1306277593 1187625140 939433105 22904053#0 989267823 5669945#0 -420908127#2 -22904149#2 1272153400#0"/>
    </vehicle>
    <vehicle id="40" type="passenger" depart="200.00" departLane="best" departSpeed="max">
        <route edges="46154330#6 46154330#7 1335306158#0 1335306157#0 46160225#0 541345307#0 835694479#0 837943499#0 1158491838 1126410086#0 1149014898#0 5670267#0 1032502936#0 129834316#0 129834316#2 129834316#3 1015379882#0 5672027#0 1329384424#0 1015379883#0 1015379883#1 -46165816 226193905#3 -1332857274#1 -806341217#2"/>
    </vehicle>
    <vehicle id="41" type="passenger" depart="205.00" departLane="best" departSpeed="max">
        <route edges="22902610#0 22897633#3 420598294#0 420598256#0 420598270#0 420598262#0 420598248#0 1021949719#0 1021949721#0 1021949723#0 1021949724#0 1021949725#0 1021949727#0 1021949729#0 1021949731#0 1021949733#0 118400726#0 1021949735#0 349873701#0 420356798#0 118400728#0 5671083#0 457937084#0 1267527730#0 993797882 420352240#0 834238142#0 834238142#2 834238142#4 221687794#0 221687794#2 451954060#0 421827961#0 421827960#0 231393429#0 1317731492 496990216#0 46349390#0 968521513#0 1188730093#0 1189567313#0 -5670574#1 -1188730152#1 -895349521#1 5670709#0 1298186395 1188730002#0 1188730002#3 1188730002#6 1188730002#9 1080873868#0 -46334605#14 -46334605#13 1188676818#0"/>
    </vehicle>
    <vehicle id="42" type="passenger" depart="210.00" departLane="best" departSpeed="max">
        <route edges="993797876#4 -195743554#3 903593425#0 993797880#0 68325065#0 978443489#0 910484222#0 903593426#0 497769953#0 1320225050 1320225051 588293370#1 1113542902#0 524387551#0 524387551#3 1049854215#0 524388532#0 420352244#0 420352249#0 420352248#0 420352250#0 729972920#0 729972920#2 420352247#0 -46332295#14 -46332295#11 -46332295#8 5671291#0 5671291#4 256902825#0 421832644#1 421832644#4 653406301#0 1342197776 412876925#0 421832641#0 420809417#0"/>
    </vehicle>
    <vehicle id="43" type="passenger" depart="215.00" departLane="best" departSpeed="max">
        <route edges="-496989959#1 -524610937#1 -525656847#2 -525656852#1 -525658419#1 -1335332353#1 -525038147#2 -1333741753#1 -438366913#0 -1135361330#1 524361790 -630828599 -496990645 420890074#0 5671717 1333438296#0 1333438296#2 1333438297#2 42786502#0 414751458#0 196116989#0 1332825247 1329595924 46154285#0 496982787#0 420355083#0 -1238545752#3 -420355081#4 -675967321#4 675967322#0 1032459844#0 880256646#0 226041016#0 226041016#4"/>
    </vehicle>
    <vehicle id="44" type="passenger" depart="220.00" departLane="best" departSpeed="max">
        <route edges="5671713#2 5671713#4 196117059#0 475867321#0 1021042405 420809425#0 -1234696599 46165812#2 46165812#3 46171884#0 5669882#0 1334995999#0 -1330602154#1 587038049#0 388318981#0 888759076#0 1158491835 455501322#0 5671587#0 1334212776#0 25564482"/>
    </vehicle>
    <vehicle id="45" type="passenger" depart="225.00" departLane="best" departSpeed="max">
        <route edges="420598373#0 464683329#0 464683329#4 464683329#8 464683329#12 464683328#0 464683317#0 464683327#0 923090985#3 420598402#0 421825692#0 421825692#3 421825692#6 421825692#9 1315847472#0 1315847472#4 464522037#0 464522037#3 464522037#6 464522037#9 464522037#12 464522037#15 464522037#18 653428657#0 957085298 957085297 421825693#0 1205533071#0 968737540#0 968737542#0 968737544#0 5669742#0 963551551#0 -505598707#1 -591772210#11 1271581110#0 1271581111#0 46139039#0 46139039#4 46139039#8 46139039#12 46139039#14 194923776#0 1030282418#0 496990369#0 46116314#0 356140737#0 1043517682 507432922#0 1238347039 122660459 122660460#1 432550257 432550256 808611038 808611026 808611026-AddedOffRampEdge 23042516#0 278135785#2 534164487#0 421821527 1255692929 221694587 954503215 421821533#0 1144813644 46819913#0 221694589 23168582#1 1188739700#0 221694588#0"/>
    </vehicle>
    <vehicle id="46" type="passenger" depart="230.00" departLane="best" departSpeed="max">
        <route edges="993795186#0 1334230709 1080978583#0 226193929#0 226193929#2 -38605247#4 -38605247#2 -38605247#1 -496978218#2 -1335332353#1 -525038147#2 -1333741753#1 -438366913#0 -1135361330#1 524361790 5669420#0 1328731144 432550257 432550256"/>
    </vehicle>
    <vehicle id="47" type="passenger" depart="235.00" departLane="best" departSpeed="max">
        <route edges="963551553#14 420810620#0 420810620#1 256902831#0 256902831#2 1135342277#0 -1135342276#2 194923798#0 -414751576#2 -1135342275#4 -1135342275#2 -1135342275#1 -1329583056 -1329887723 -1135342273#2 196116989#0 -421824309#2 196117014 1156469033#0 -1238431029#1 1333670675#1 1333670674#0 655255187#0"/>
    </vehicle>
    <vehicle id="48" type="passenger" depart="240.00" departLane="best" departSpeed="max">