<?xml version="1.0" encoding="UTF-8"?>

<!-- generated on 2025-08-18 11:22:44.932145 by randomTrips.py v1_24_0+0000-b72eb3fabc8
<configuration>
    <net-file value="los_angeles\osm.net.xml.gz"/>
    <route-file value="los_angeles\osm.passenger.trips.xml"/>
    <trip-attributes value="departLane=&quot;best&quot; departSpeed=&quot;max&quot;"/>
    <vehicle-class value="passenger"/>
    <remove-loops value="True"/>
    <end value="600.0"/>
    <period value="5.0"/>
</configuration>
-->

<!-- generated on 2025-08-18 11:22:44 by Eclipse SUMO duarouter Version 1.24.0
<duarouterConfiguration xmlns:xsi="http://www.w3.org/2001/XMLSchema-instance" xsi:noNamespaceSchemaLocation="http://sumo.dlr.de/xsd/duarouterConfiguration.xsd">

    <input>
        <net-file value="los_angeles\osm.net.xml.gz"/>
        <route-files value="trips.trips.xml"/>
    </input>

    <output>
        <output-file value="los_angeles\osm.passenger.trips.xml"/>
        <alternatives-output value="NUL"/>
    </output>

    <processing>
        <remove-loops value="true"/>
    </processing>

    <time>
        <begin value="0.0"/>
        <end value="600.0"/>
    </time>

    <report>
        <no-warnings value="true"/>
        <ignore-errors value="true"/>
        <no-step-log value="true"/>
    </report>

</duarouterConfiguration>
-->

<routes xmlns:xsi="http://www.w3.org/2001/XMLSchema-instance" xsi:noNamespaceSchemaLocation="http://sumo.dlr.de/xsd/routes_file.xsd">
    <vType id="passenger" vClass="passenger"/>
    <vehicle id="0" type="passenger" depart="0.00" departLane="best" departSpeed="max">
        <route edges="172877646#4 13451741#4 13451741#5 398812987 402118707#0 402118707#1 398812990#0 398812990#1 398812990#2 398812990#3 398812990#4 398812989#0 398812989#1 398812989#2 398812991#0 398812991#1 398812991#2 398812992#0 398812992#1 398812992#2 398812992#3 398812992#4 398812988 398812986#0 398812986#1 237022761#0 237022761#1 237022761#2 237022761#3 237022761#4 237022761#5 237022761#6 237022761#7 237022761#8 237022761#9 237022761#10 237022761#11 237022761#12 237022761#13 237022761#14 603942772#0 603942772#1 603942772#2 524499802#0 524499802#1 524499802#2 524499802#3 524499802#4 524499803#0 524499803#1 398815739#0 398815739#1 398815738#0 398815738#1 398815740#0 398815740#1 398815740#2 398815740#3 438255394#0 438255394#1 438255394#2 438255394#3 -604086206#2 -604086206#1 -604086206#0 -437799959#4 -437799959#3 -437799959#2 -437799959#1 -437799959#0 399241928#0 399241928#1 399241928#2 399241929#0 399241929#1 604086214#0 604086214#1 604086214#2 607576333#0 607576333#1 607576333#2 607576333#3 399241924#0 399241924#1 399241924#2 -161716023#2 -161716023#1 -161716023#0 -603531526 -683382938 -456584287#1 -456584287#0 -607788592 -604060327#1 -604060327#0 -121934301#3 -121934301#2 -121934301#1 -121934301#0"/>
    </vehicle>
    <vehicle id="1" type="passenger" depart="5.00" departLane="best" departSpeed="max">
        <route edges="-399241924#3 -399241924#2 -399241924#1 -399241924#0 -607576333#3 -607576333#2 -607576333#1 -607576333#0 186070700#0 186070700#1 234668494#0 234668494#1 234668494#2 1053246342 161716025#0 161716025#1 161716025#2 161716025#3 399241937#0 399241937#1 399243261#0 399243261#1 399241935#0 399241935#1 399241936#0 399241936#1 399241936#2 399243265#0 399243265#1 399243265#2 381204958#0 381204958#1 399243269#0 399243269#1 381204957#0 381204957#1 381204957#2 381204957#3 381204957#4 1123281736#0 1123281736#1 294585476#0 294585476#1 294585476#2 294585476#3 404995538#0 404995538#1 381266660#0 381266660#1 381266660#2 381266660#3 382238932#0 382238932#1 382238932#2 382238932#3 382238932#4 399181819#0 399181819#1 382238485#0 382238485#1 382238485#2 382238485#3 382238485#4 382238064#0 382238064#1 382238064#2 382238064#3 382238064#4 382238064#5 404995537 382237279#0 382237279#1 518201969#0 518201969#1 518201969#2 425993525#0 425993525#1 405180170#0 405180170#1 382237280#0 382237280#1 398815190#0 398815190#1 382248461#0 382248461#1 382248461#2 382248461#3 382248461#4 382248461#5 405180169 -382251676"/>
    </vehicle>
    <vehicle id="2" type="passenger" depart="10.00" departLane="best" departSpeed="max">
        <route edges="382241129#3 604060339#0 604060339#1 604060339#2 604060339#3 604060339#4 604060339#5 1053006687#0 1053006687#1 186076403#0 186076403#1 1363307629#0 1363307629#1 1363307629#2 1363307629#3 604086177#0 604086177#1 604086177#2 604086177#3 604086177#4 1235901884 886540947 399243759 1061721186 399243760#0 399243760#1 399241939#0 399241939#1 399241939#2 399241939#3 399241939#4 399241938#0 399241938#1 186076386#0 186076386#1 399296455#0 399296455#1 399296452 30613636#0 30613636#1 206375355#0 206375355#1"/>
    </vehicle>
    <vehicle id="3" type="passenger" depart="15.00" departLane="best" departSpeed="max">
        <route edges="1041515647 630976938 185937861#0 185937861#1 185937861#2 185937861#3 185937861#4 185937861#5 185937861#6 185937861#7 399295362#0 399295362#1 399295360 399295366#0 399295366#1 399295366#2 399295359 399295369#0 399295369#1 399295367#0 399295367#1 399295367#2 399295361 -24816465 -399284158 -399284175 1120791484 24816761#0 24816761#1 24816761#2 399284161#0 399284161#1 399284157#0 399284157#1 399284174 399284184#0 399284184#1 399284183 399284181 399284182 130511948 185948988 1228771782 399284187 399284190#0 399284190#1 130511960#0 130511960#1 130511960#2 130511960#3 1346732777 1346732778 983674233#0 983674233#1 983674233#2 742153563 682258658 -381482571#1 -381482571#0 -186076539#1 -186076539#0 -398735931#1 -398735931#0 -398735929#1 -398735929#0 -398735933#2 -398735933#1 -398735933#0 -398735937#1 -398735937#0 -398735939#1 -398735939#0 -521842795 -398735936 -398735938#1 -398735938#0 -398735940#6 -398735940#5 -398735940#4 -398735940#3 -398735940#2 -398735940#1 -398735940#0 -1235919541 -382496106 -398812542#1 -398812542#0 -398812541#1 -398812541#0 -186076540#2 -186076540#1 -186076540#0 -382459572#2 -382459572#1 -382459572#0 -381206057 -1209491445 -398812534 -398812543#4 -398812543#3 -398812543#2 -398812543#1 -398812543#0 -398812537#1 -398812537#0 -399301456#1 -399301456#0 -398812540 -399301459#1 -399301459#0 -381206058 -402116062 -399301462 -399301461 -797863603#2 -797863603#1 -797863603#0 797863602 797863604#0 797863604#1 797863604#2 797863604#3 797863604#4 797863604#5 13433448#8 13433448#9 13433448#10 13433448#11 13433448#12 1237353066#0 1237353066#1 1237353066#2 1314799228#0 1314799228#1 1314799228#2 1314801143#0 1314801143#1 1314801143#2"/>
    </vehicle>
    <vehicle id="4" type="passenger" depart="20.00" departLane="best" departSpeed="max">
        <route edges="-381454480#0 24717296 399313037#0 399313037#1 -405169153 -120374541 -405169159 -399313024#2 -399313024#1 -399313024#0 -405169158 -399313023 399313036#0 399313036#1 319147928 399303785 607788622 674108459 1102767042 1102767043 866216206 866279995 122900676 670919152 120111293 1336800980 1343455114 148385603 399274297 399274308 -399284193#1 -399284193#0 -1112027607#1 -1112027607#0 -399270445#1 -399270445#0 -399270446 -399270447 -399262521#1 -399262521#0 -399262527#1 -399262527#0 -399262525 -9475882 -185937871 -104359404 -399262511 -139639790#7 -139639790#6 13383094"/>
    </vehicle>
    <vehicle id="5" type="passenger" depart="25.00" departLane="best" departSpeed="max">
        <route edges="-1237353066#1 -1237353066#0 -13433448#12 -13433448#11 -13433448#10 -13433448#9 -13433448#8 -797863604#5 -797863604#4 -797863604#3 -797863604#2 -797863604#1 -797863604#0 -797863602 797863603#0 797863603#1 797863603#2 399301461 399301462 402116062 381206058 399301459#0 399301459#1 398812540 399301456#0 399301456#1 -398812994#3 -398812994#2 -398812994#1 -398812994#0 521802279#0 521802279#1 521802279#2 521802279#3 521802279#4 521802279#5 521802279#6 521802279#7 521802279#8 521802279#9 521802279#10 521802279#11 521802279#12 521802279#13 521802279#14 521802279#15 521802279#16 521802279#17 521802279#18 521802279#19 521802279#20 521802279#21 604060348#0 604060348#1 604060348#2 604060348#3 604060348#4 604060348#5 604060348#6 604060348#7 604060348#8 45536227#0 45536227#1 45536227#2 45536227#3 45536227#4 399247030 1065901547 161714128#0 161714128#1 603531506#0 603531506#1 603531506#2 603531506#3 603531506#4 603531506#5 603531506#6 206372068#0 206372068#1 206372068#2 206372068#3 405163390#0 405163390#1 524575360#0 524575360#1 524575360#2 524575360#3 524575360#4 1146882440 524575359#0 524575359#1 206372069#0 206372069#1 206372069#2 206372069#3 206372069#4 206372069#5 206372069#6 404995539 404995540#0 404995540#1 404995540#2 404995540#3 404995540#4 404995540#5 404995540#6 404995540#7 404995540#8 404995540#9 404995540#10 404995540#11 407591167#0 407591167#1 407591167#2 1123284792#0 1123284792#1 407591166#0 407591166#1 407591166#2 405178820 1393433140#0 1393433140#1 1393433142 148385388 1393433133 29042889 1111525992 1111525993#0 1111525993#1 29042890#0 29042890#1 29042890#2 29042890#3 886540949#0 886540949#1 886540949#2 886540949#3 886540949#4 405178824#0 405178824#1 256114876#0"/>
    </vehicle>
    <vehicle id="6" type="passenger" depart="30.00" departLane="best" departSpeed="max">
        <route edges="185747931#1 399307905 399307902 399307908 381193087#0 381193087#1 -1083202535#7 -1083202535#6 -1083202535#5 -1083202535#4 -1083202535#3 -1083202535#2 -1083202535#1 -1083202535#0 -165521628 381196472 186070703#0 186070703#1 643857566#0 643857566#1 399305998#0 399305998#1 1121247207#0 1121247207#1 1121247208#0 1121247208#1 167413476#0 167413476#1 167413476#2 167413476#3 167413476#4 399305995#0 399305995#1 186070738#0 186070738#1 186070738#2 186070738#3 186070738#4 186070738#5 523623582#0 523623582#1 523623581#0 523623581#1 523623581#2 523623581#3 1121980512#0 1121980512#1 382242607#0 382242607#1 382242607#2 382242607#3 603531508 206376286#0 206376286#1 206376286#2 1050203768 399247033#0 399247033#1 604086206#0 604086206#1 604086206#2 -438255394#3 -438255394#2 -438255394#1 -438255394#0 -438274650#2 -438274650#1 -438274650#0 -1014457434#4 -1014457434#3 -1014457434#2 -1014457434#1 -1014457434#0 -47805886#10 -47805886#9 -47805886#8 -47805886#7 -47805886#6 161688464#3 161688464#4 161688464#5 161688464#6 161688464#7 161688464#8 161688464#9 161688464#10 161688464#11 161688464#12 161688464#13 161688464#14 161688464#15 161688464#16 161688464#17 161688464#18 161688464#19 161688464#20 161688464#21 161688464#22 161688464#23 161688464#24 398814234#0 398814234#1 185741202#0 185741202#1 185741202#2 185741202#3 185741202#4 185741202#5 185741202#6 161836068#0 161836068#1 -607576342#1 -607576342#0 -185741201 383920667#0 383920667#1 -599591646 -185949003 -47798524#6 47474553#9 -844901546 23153109#0 23153109#1 23153109#2 23153109#3 23153109#4 13467579#0 13467579#1"/>
    </vehicle>
    <vehicle id="7" type="passenger" depart="35.00" departLane="best" departSpeed="max">
        <route edges="381471424#1 186076385#0 186076385#1 398738128 398738131#0 398738131#1 398738129#0 398738129#1 382440774 1208774639#0 1208774639#1 1208774639#2 1208774639#3 47805886#0 47805886#1 47805886#2 47805886#3 47805886#4 47805886#5 47805886#6 47805886#7 47805886#8 47805886#9 47805886#10 186070722#0 186070722#1 186070722#2 186070722#3 524575358#0 524575358#1 438256776#0 438256776#1 438256776#2 234665446#0 234665446#1 234665446#2 234665446#3 234665446#4 234665446#5 234665446#6 234665446#7 382229042 382229043#0 382229043#1 382229043#2 607576339#0 607576339#1 186070725#0 186070725#1 1049269630#0 1049269630#1 1049269630#2 606916054#0 606916054#1 606916054#2 606916054#3 1053007810#0 1053007810#1 607576341#0 607576341#1 607576341#2 186070723#0 186070723#1 186070723#2 399270704#0 399270704#1 185948978 148385875 148385639 148385801#1 123561823 866331104 866331103 24849437 24849359 24849427 24849365 24849409 186070730 399297110 161690249#0 161690249#1 399298553#0 399298553#1 399298552 399299023 399299598 399299594 399299595 399299597 186070729#0 186070729#1 399299596#0 399299596#1 399264508#0 399264508#1 399264508#2 186070736#0 186070736#1 186070736#2 186070736#3 399264513#0 399264513#1 161710209#0"/>
    </vehicle>
    <vehicle id="8" type="passenger" depart="40.00" departLane="best" departSpeed="max">
        <route edges="399264541#1 606916030#0 606916030#1 606916030#2 606916029#0 606916029#1 606916029#2 606916029#3 606916029#4 161508106#4 161508106#5 161508106#6 161508106#7 161508106#8 161508106#9 399264531 399264529 399264530#0 399264530#1 399264527#0 399264527#1 399264528#0 399264528#1 399264533 1148158083#0 1148158083#1 168953778#0 168953778#1 168953778#2 168953778#3 168953778#4 168953778#5 399276119#0 399276119#1 399276120#0 399276120#1 399276136 399276126#0 399276126#1 399276122 399276130 399276129 399276124 399276135#0 399276135#1 399276135#2 399276135#3 399276127 399276128 399276132 168954874 399276137 399276123 27747401 399276125 -237022758 1201657480 207978275#0 207978275#1 207978275#2 1201657481#0 1201657481#1 207978277 27747223 1065486253#0 1065486253#1 161713778 185948962 119889074 185948963 382450785 405164504 405164503 405169151#0 405169151#1 405169151#2 405169152#0 405169152#1 286995308 405169150 161808940#0 161808940#1 1036211020#0 1036211020#1 45536813#0 45536813#1 185948959 161929506 1054317844#0 1054317844#1 1054317844#2 1054317843 1054317842 1036249339#0 1036249339#1 1036249339#2 399312994#0 399312994#1 399312994#2 399313036#0 399313036#1 319147928 399303785 607788622 172998575 978058251 405183747 405183743#0 405183743#1 405183743#2 382248844 607788624#0 607788624#1 607788624#2 1393433156 1393433162 30647778#0 30647778#1 30647778#2 405180824 405180827 405180825 405180826 237016489#0 237016489#1 -398815682#1 -398815682#0 -398815680 -398815678#3 -398815678#2 -398815678#1 -398815678#0 -398815681#1 -398815681#0 -398815679#1 -398815679#0 -398807792#4 -398807792#3 -398807792#2 -398807792#1 -398807792#0 -398807768#2 -398807768#1 -398807768#0 -161929845#1 -161929845#0 -608855539#1 -608855539#0 -405165973#2 -405165973#1 -405165973#0 405181004#0 405181004#1 1036765061 276609387 1036765068 1036765069"/>
    </vehicle>
    <vehicle id="9" type="passenger" depart="45.00" departLane="best" departSpeed="max">
        <route edges="-399264512#0 161710209#0 161710209#1 161710209#2 -399296418 -399296416#2 -399296416#1 -399296416#0 -399296427#1 -399296427#0 -399296419 399302775 399302774 758676914 758676913#0 758676913#1 399302776#0 399302776#1 399301772#0 399301772#1 399301772#2 399301774#0 399301774#1 399301774#2 399301773 399301765 -186070711#5 -186070711#4 -186070711#3 -186070711#2 -186070711#1 -186070711#0 -148385469 -13451645 -648604252 -648604253 -380941698 -399295049#1 -399295049#0 -399295050 -404032784 -404032786 -404032785 -404032787 -181418903 175963379#0 175963379#1 175963379#2 175963379#3 404032790 404032788#0 404032788#1 175963381 404032789 175963382 -399296443 -399296442 -380944788#2 -380944788#1 -380944788#0 380944781#0 380944781#1 380944781#2 380944781#3 380944781#4 380944781#5 380944781#6 380944781#7 380944781#8 399270073#0 399270073#1 121934301#0 121934301#1 121934301#2 121934301#3 401592771#0 401592771#1 401589636 604115998 186076413 783790508 783790509 27767420 970050655 27767421 119882426 27767422 27767423"/>
    </vehicle>
    <vehicle id="10" type="passenger" depart="50.00" departLane="best" departSpeed="max">
        <route edges="-405169146#5 -405169146#4 -405169146#3 -405169146#2 -405169146#1 -405169146#0 -48847753 -161713858#1 -161713858#0 -399179069#4 -399179069#3 -399179069#2 -399179069#1 -399179069#0 -161890281#1 -161890281#0 186070725#0 186070725#1 1049269630#0 1049269630#1 1049269630#2 606916054#0 606916054#1 606916054#2 606916054#3 1053007810#0 1053007810#1 607576341#0 607576341#1 607576341#2 186070723#0 186070723#1 186070723#2 399270704#0 399270704#1 185948978 148385875 148385639 148385801#1 123561823 866331104 866331103 24849437 1337932266 24849439 579979545 148252671 1058773025 148252674 148385558 66668867 148385846 973460068 399304450 399304449 45536230#1 404203224 148385469 186070711#0 186070711#1 186070711#2 186070711#3 186070711#4 165518742#8"/>
    </vehicle>
    <vehicle id="11" type="passenger" depart="55.00" departLane="best" departSpeed="max">
        <route edges="607540259#0 607540259#1 607540259#2 607540259#3 607540259#4 1012485322#2 1012485322#3 1012485322#4 1012485322#5 -607540256#5 -607540256#4 -607540256#3 -607540256#2 -607540256#1 -607540256#0 -398527680#4 -398527680#3 -398527680#2 -398527680#1 -398527680#0 -398527687 398527681#0 398527681#1 398527681#2 399238804#0 399238804#1 399238804#2 1351804789 1351804788 1111951368 535519339 1084061980 1036246444#0 1036246444#1 1036246444#2 1036246444#3 1036246444#4 403602946 402133275 402133276#0 402133276#1 402133276#2 402133276#3 402133276#4 399238811 399238805 399238816#0 399238816#1 399238816#2 399238816#3 399238816#4 399238810 399238806 399238807#0 399238807#1 399238809#0 399238809#1 399238812#0 399238812#1 399238815 579163503#0 579163503#1 579163503#2 579163503#3 399238813#0 399238813#1 399238814#0 399238814#1 172996350#0 172996350#1 603568544#0 603568544#1 603568544#2 398735949#0 398735949#1 382460880 727977605#0 727977605#1 382460879#0 382460879#1 398735948#0 398735948#1 398735945 398735944 398735943#0 398735943#1 398735947#0 398735947#1 306487258#0 306487258#1 306487258#2 1050275893#0 1050275893#1 1050275893#2 1050275893#3 185948997#0 185948997#1 185948997#2 185948997#3 185948997#4 398738126#0 398738126#1 405162737#0 405162737#1 234662681#0 234662681#1 234662681#2 234662681#3 405162734#0 405162734#1 405162734#2 404995542#0 404995542#1 1059493772 185949000#0 185949000#1 185949000#2 -405164501#2 -405164501#1 -405164501#0"/>
    </vehicle>
    <vehicle id="12" type="passenger" depart="60.00" departLane="best" departSpeed="max">
        <route edges="-13433448#9 -13433448#8 -797863604#5 -797863604#4 -797863604#3 -797863604#2 -797863604#1 -797863604#0 -797863602 797863603#0 797863603#1 797863603#2 399301461 399301462 402116062 381206058 399301459#0 399301459#1 398812540 399301456#0 399301456#1 398812537#0 398812537#1 398812543#0 398812543#1 398812543#2 398812543#3 398812543#4 398812534 1209491445 381206057 382459572#0 382459572#1 382459572#2 186076540#0 186076540#1 186076540#2 398812541#0 398812541#1 398812542#0 398812542#1 382496106 1235919541 398735940#0 398735940#1 398735940#2 398735940#3 398735940#4 398735940#5 398735940#6 161688464#22 161688464#23 161688464#24 398814234#0 398814234#1 185741202#0 185741202#1 185741202#2 185741202#3 185741202#4 185741202#5 185741202#6 161836068#0 161836068#1 -607576342#1 -607576342#0 -185741201 383920667#0 383920667#1 -599591646 -185949003 -47798524#6 -47798524#5 -47798524#4 -47798524#3 -47798524#2 -47798524#1 -47798524#0 -47798522 -47798518#2 -47798518#1 -47798518#0 -13446478#5 -13446478#4"/>
    </vehicle>
    <vehicle id="13" type="passenger" depart="65.00" departLane="best" departSpeed="max">
        <route edges="-399298553#0 -161690249#1 -161690249#0 -399297110 511703089 165518736 648604240 186070714 648604239 165520589 946282179 946282178#0 946282178#1 946282178#2 381196472 186070703#0 186070703#1 643857566#0 643857566#1 399305998#0 399305998#1 1121247207#0 1121247207#1 1121247208#0 1121247208#1 167413476#0 167413476#1 167413476#2 167413476#3 167413476#4 399305995#0 399305995#1 186070738#0 186070738#1 186070738#2 186070738#3 186070738#4 186070738#5 523623582#0 523623582#1 523623581#0 523623581#1 523623581#2 523623581#3 1121980512#0 1121980512#1 382242607#0 382242607#1 382242607#2 382242607#3 603531508 206376286#0 206376286#1 206376286#2 1050203768 399247033#0 399247033#1 399247031#0 399247031#1 399247032#0 399247032#1 100930395#0 100930395#1 100930395#2 100930395#3 100930395#4 100930395#5 100930395#6 604060347 48331373#0 48331373#1 48331373#2 48331373#3 48331373#4 48331373#5 48331373#6 -399238818 -161689817#6 -161689817#5 -161689817#4 -161689817#3 -161689817#2 -161689817#1 -161689817#0 1083933137#0 1083933137#1 1083933137#2 -607540254#15 -607540254#14 -607540254#13 -607540254#12 -607540254#11 -607540254#10 -607540254#9 -607540254#8 -607540254#7 -607540254#6 -607540254#5 -607540254#4 13323728#7 13323728#8 13323728#9 13323728#10 13323728#11 -403593776#0 161716756#0"/>
    </vehicle>
    <vehicle id="14" type="passenger" depart="70.00" departLane="best" departSpeed="max">
        <route edges="-399264524#1 -399264524#0 -399276098#1 -399276098#0 -1377994585 -1377994586 -399276118#5 -399276118#4 -399276118#3 -399276118#2 -399276118#1 -399276118#0 -399276107 -399276101#1 -399276101#0 -399276116 -399276104 -399276111#1 -399276111#0 -399276099 -399276115 -399276114 -399276117 -399276102 -485629626 -485629633 -399276113 -399276112 -399276100 -167420331#1 -167420331#0 161713694#0 161713694#1 161713694#2 607576330 1059408755 399312986#0 399312986#1 399312986#2 399312984#0 399312984#1 -399313010 -1353772131 -399313013 -399313012 -156414185 161689785 172603544#0 172603544#1 358727539#0 358727539#1 358727539#2 382218111#0 382218111#1 518201967 185948992#0 185948992#1 398740656#0 398740656#1 185948996#0 185948996#1 398740654#0 398740654#1 398740647#0 398740647#1 398740647#2 -398740648#1 -398740648#0 -398740646#3 -398740646#2 -398740646#1 -398740646#0 -398740651#1 -398740651#0 398740650#0 398740650#1 234659538#0 234659538#1 234659538#2 234659538#3 234659538#4 234659538#5 398735929#0 398735929#1 398735931#0 398735931#1 186076539#0 186076539#1 381482571#0 381482571#1 1068188378 682258660#0 682258660#1 682258660#2 742153560 48331379#0 48331379#1 48331379#2 399284189#0 399284189#1 399284189#2 399284189#3 1346732779 381482568#0 381482568#1 381482568#2"/>
    </vehicle>
    <vehicle id="15" type="passenger" depart="75.00" departLane="best" departSpeed="max">
        <route edges="13446478#3 13446478#4 13446478#5 47798518#0 47798518#1 47798518#2 47798522 47798524#0 47798524#1 47798524#2 47798524#3 47798524#4 47798524#5 47798524#6 185949003 599591646 -383920667#1 -383920667#0 185741201 607576342#0 607576342#1 161836071 398740653 161688766#0 161688766#1 306487259#0 306487259#1 161688767#0 161688767#1 161688767#2 161688767#3 161688767#4 161688767#5 161688767#6 161688767#7 161688767#8 161688767#9 161688767#10 161688767#11 306487258#0 306487258#1 306487258#2 1050275893#0 1050275893#1 1050275893#2 1050275893#3 47805886#0 47805886#1 47805886#2 47805886#3 47805886#4 47805886#5 47805886#6 47805886#7 47805886#8 47805886#9 47805886#10 186070722#0 186070722#1 186070722#2 186070722#3 524575358#0 524575358#1 438256776#0 438256776#1 438256776#2 234665446#0 234665446#1 234665446#2 234665446#3 234665446#4 234665446#5 234665446#6 234665446#7 382229042 382229043#0 382229043#1 382229043#2 607576339#0 607576339#1 186070725#0 186070725#1 1049269630#0 1049269630#1 1049269630#2 606916054#0 606916054#1 606916054#2 606916054#3 1053007810#0 1053007810#1 607576341#0 607576341#1 607576341#2 186070723#0 186070723#1 186070723#2 399270704#0 399270704#1 185948978 148385875 148385639 148385801#1 123561823 866331104 866331103 24849437 1337932266 24849439 579979545 148252671 1058773025 148252674 148385558 66668867 148385846 973460068 399304450 399304449 45536230#1 404203224 -13451645 -648604252 -648604253 148385721#0 148385721#1 66668853 66668844 66668843"/>
    </vehicle>
    <vehicle id="16" type="passenger" depart="80.00" departLane="best" departSpeed="max">
        <route edges="-603531496#3 -399284202#1 -399284202#0 -186076399 -381243038#14 -381243038#13 -381243038#12 -381243038#11 -381243038#10 -381243038#9 -381243038#8 -381243038#7 -381243038#6 -381243038#5 -381243038#4 -381243038#3 -381243038#2 -381243038#1 -381243038#0 167413476#3 167413476#4 399305995#0 399305995#1 186070738#0 186070738#1 186070738#2 186070738#3 186070738#4 186070738#5 523623582#0 523623582#1 523623581#0 523623581#1 523623581#2 523623581#3 1121980512#0 1121980512#1 382242607#0 382242607#1 382242607#2 382242607#3 603531508 206376286#0 206376286#1 206376286#2 1050203768 399247033#0 399247033#1 604086206#0 604086206#1 604086206#2 -438255394#3 -438255394#2 -438255394#1 -438255394#0 -438274650#2 -438274650#1 -438274650#0 -1014457434#4 -1014457434#3 -1014457434#2 -1014457434#1 -1014457434#0 -47805886#10 -47805886#9 -47805886#8 -47805886#7 -47805886#6 -47805886#5 -47805886#4 -47805886#3 -47805886#2 -47805886#1 -47805886#0 -1208774639#3 -1208774639#2 -1208774639#1 -1208774639#0 -382440774 -398738129#1 -398738129#0 -398738131#1 -398738131#0 -398738128 -186076385#1 -186076385#0 -381471424#1 -381471424#0 381471428#0 381471428#1 -1378030849 -1235919556#1 -1235919556#0 907992120#0 907992120#1 1363327654 1377417996 1363034744#0 1363034744#1 381472818#0 381472818#1 381472818#2 381472818#3 858902625#0 858902625#1 858902625#2 405172286#0 405172286#1 405172288 405172289 405172287#0 405172287#1 186070699#0 186070699#1 405170915 405170914#0 405170914#1 161838705#0 161838705#1 148385749 399258030 670919152 120111293 1336800980 1343455114 148385603 399274297 399274308 -399284193#1 -399284193#0 -1112027607#1 -1112027607#0 -399270445#1 -399270445#0 -399270446 -399270447 -399262521#1 -399262521#0 -399262527#1 -399262527#0 -399262525 -9475882 -185937871 -104359404 -399262511 -139639790#7 -139639790#6 -139639790#5 -139639790#4 -139639790#3 -139639790#2 -139639790#1"/>
    </vehicle>
    <vehicle id="17" type="passenger" depart="85.00" departLane="best" departSpeed="max">
        <route edges="399284161#0 399284161#1 13310245#0 13310245#1 13310245#2 13310245#3 13310245#4 13310245#5 13310245#6 13310245#7 13310245#8 518090282 -518090281 -524388209 -399284191 -399284193#1 -399284193#0 24706855 24706861 866213630 148385698 900600533 120111279 900600532 1154923244 237592461 -399262548#1 -399262548#0 -399262549 -237592463#1 -237592463#0 161708060#0 161708060#1 508814027 723319420 399264811#0 399264811#1 1103832797 1103832795#0 1103832795#1 1103832796 399264810#0 399264810#1 399264809#0 399264809#1 399264807#0 399264807#1 399264808 25599703 1036765067 25599707#0 25599707#1 25599707#2 1016855812#0 1016855812#1 405165974 405181005 -405181004#1 -405181004#0 405165973#0 405165973#1 405165973#2 608855539#0 608855539#1 161929845#0 161929845#1 398807768#0 398807768#1 398807768#2 398807792#0 398807792#1 398807792#2 398807792#3 398807792#4 398815679#0 398815679#1 604086190#0 604086190#1 604086190#2 604086190#3 604086190#4 161708065#0 161708065#1 161708065#2 161930300#0 161930300#1"/>
    </vehicle>
    <vehicle id="18" type="passenger" depart="90.00" departLane="best" departSpeed="max">
        <route edges="-399312989 -1096195439 -279667492 -399312990 -156414185 161689785 172603544#0 172603544#1 358727539#0 358727539#1 358727539#2 382218111#0 382218111#1 518201967 185948992#0 185948992#1 398740656#0 398740656#1 185948996#0 185948996#1 398740654#0 398740654#1 398740647#0 398740647#1 398740647#2 -398740648#1 -398740648#0 -398740646#3 -398740646#2 -398740646#1 -398740646#0 -398740651#1 -398740651#0 398740650#0 398740650#1 234659538#0 234659538#1 234659538#2 234659538#3 234659538#4 234659538#5 -398735933#2 -398735933#1 -398735933#0 -398735937#1 -398735937#0 161688767#3 161688767#4 161688767#5 161688767#6"/>
    </vehicle>
    <vehicle id="19" type="passenger" depart="95.00" departLane="best" departSpeed="max">
        <route edges="29042913 24707600 405200498 999513876 161707982#0 161707982#1 161707982#2 237592463#0 237592463#1 399262549 399262548#0 399262548#1 399258028 900600530#0 900600530#1 900600531 148385877 1341239643 24706908 1008661520 405183749#0 405183749#1 161838950#0 161838950#1 29042886#0 29042886#1 1393433118 186076369 405180167#0 405180167#1 161838876 186076384#0 186076384#1 568901863#0 568901863#1 1049547785#0 1049547785#1 -1363034744#1 -1363034744#0 -1377417996 -1363327654 -907992120#1 -907992120#0 1235919556#0 1235919556#1 1378030849 907992122 1363310648#0 1363310648#1 1363310648#2 1363310648#3 381471424#0 381471424#1 186076385#0 186076385#1 398738128 398738131#0 398738131#1 398738129#0 398738129#1 382440774 1208774639#0 1208774639#1 1208774639#2 1208774639#3 47805886#0 47805886#1 47805886#2 47805886#3 47805886#4 47805886#5 47805886#6 47805886#7 47805886#8 47805886#9 47805886#10 186070722#0 186070722#1 186070722#2 186070722#3 524575358#0 524575358#1 438256776#0 438256776#1 438256776#2 234665446#0 234665446#1 234665446#2 234665446#3 234665446#4 234665446#5 234665446#6 234665446#7 382229042 382229043#0 382229043#1 382229043#2 607576339#0 607576339#1 186070725#0 186070725#1 1049269630#0 1049269630#1 1049269630#2 606916054#0 606916054#1 606916054#2 606916054#3 1053007810#0 1053007810#1 607576341#0 607576341#1 607576341#2 186070723#0 186070723#1 186070723#2 399270704#0 399270704#1 186070724#0 186070724#1 27747409 161569700 237022758 399276138#0 13377407#0 13377407#1 148385435 399311985#0 399311985#1 -399306089 -607576345#1 -607576345#0 -168954873#2 -168954873#1 -168954873#0 -399306081#1 -399306081#0 -1301129303#1 -1301129303#0 -719634005 -524476364#1 -524476364#0 -1301129302#1 -1301129302#0 -399306100#1 -399306100#0 -384314091#3 -384314091#2 -13325576#3 -13325576#2 -13325576#1"/>
    </vehicle>
    <vehicle id="20" type="passenger" depart="100.00" departLane="best" departSpeed="max">