<?xml version='1.0' encoding='utf-8'?>
<routes><vType accel="3.0" color="0.2,0.5,1" decel="4.5" id="normal_car" length="5" maxSpeed="16.67" vClass="passenger" /><vType accel="4.0" color="0,1,0" decel="4.5" id="electric_car" length="5" maxSpeed="16.67" vClass="passenger" /><vehicle depart="498" id="veh_0" type="normal_car"><route edges="1054317844#2 725886332" /></vehicle><vehicle depart="1361" id="veh_1" type="normal_car"><route edges="186070716#1 603568541#2" /></vehicle><vehicle depart="1843" id="veh_2" type="electric_car"><route edges="161689804#4 399238812#0" /></vehicle><vehicle depart="646" id="veh_3" type="electric_car"><route edges="399294707#0 398682107#1" /></vehicle><vehicle depart="1145" id="veh_4" type="normal_car"><route edges="-1209491438 1095264569" /></vehicle><vehicle depart="164" id="veh_5" type="normal_car"><route edges="760446361#3 -724259058#1" /></vehicle><vehicle depart="3020" id="veh_6" type="normal_car"><route edges="46418442#6 -1192623940" /></vehicle><vehicle depart="694" id="veh_7" type="normal_car"><route edges="398523886 405165973#1" /></vehicle><vehicle depart="831" id="veh_8" type="normal_car"><route edges="802494482 726149515" /></vehicle><vehicle depart="1004" id="veh_9" type="electric_car"><route edges="-482109854#2 -905713823" /></vehicle><vehicle depart="2259" id="veh_10" type="normal_car"><route edges="381185307#0 185948998" /></vehicle><vehicle depart="1124" id="veh_11" type="normal_car"><route edges="404989103 607576340#2" /></vehicle><vehicle depart="342" id="veh_12" type="electric_car"><route edges="1121643253 -255495055#0" /></vehicle><vehicle depart="1184" id="veh_13" type="normal_car"><route edges="165521625#0 13379632#11" /></vehicle><vehicle depart="5133" id="veh_14" type="electric_car"><route edges="399296426#1 1084553134" /></vehicle><vehicle depart="3691" id="veh_15" type="normal_car"><route edges="161687304#9 -784721296" /></vehicle><vehicle depart="6699" id="veh_16" type="normal_car"><route edges="13287107#10 911204518" /></vehicle><vehicle depart="6111" id="veh_17" type="normal_car"><route edges="-399282995 399274320" /></vehicle><vehicle depart="5033" id="veh_18" type="normal_car"><route edges="-838632800 398520190#0" /></vehicle><vehicle depart="5994" id="veh_19" type="normal_car"><route edges="-161716094#7 -13398182#0" /></vehicle><vehicle depart="4693" id="veh_20" type="normal_car"><route edges="905717436#1 -399238818" /></vehicle><vehicle depart="6534" id="veh_21" type="normal_car"><route edges="-791595660 -605414429#7" /></vehicle><vehicle depart="3739" id="veh_22" type="electric_car"><route edges="770401821#1 186076381#4" /></vehicle><vehicle depart="5179" id="veh_23" type="electric_car"><route edges="9170923#2 442243210#1 -605414429#6" /></vehicle><vehicle depart="5288" id="veh_24" type="normal_car"><route edges="172869579#1 -161710209#7" /></vehicle><vehicle depart="5971" id="veh_25" type="normal_car"><route edges="-1209491436 -255621798#5" /></vehicle><vehicle depart="4655" id="veh_26" type="normal_car"><route edges="771094112#0 -398423707#0" /></vehicle><vehicle depart="7061" id="veh_27" type="electric_car"><route edges="399296442 -727451448" /></vehicle><vehicle depart="6883" id="veh_28" type="normal_car"><route edges="13305516#5 723708759" /></vehicle><vehicle depart="6116" id="veh_29" type="electric_car"><route edges="167413475#8 351595778#2 706156125" /></vehicle><vehicle depart="5079" id="veh_30" type="electric_car"><route edges="-724031405#1 -607576332#10" /></vehicle><vehicle depart="5243" id="veh_31" type="electric_car"><route edges="521802279#13 1271555499 -607576332#4" /></vehicle><vehicle depart="5217" id="veh_32" type="electric_car"><route edges="-726109142 403593776#2" /></vehicle><vehicle depart="5921" id="veh_33" type="normal_car"><route edges="-723807266 382238932#3" /></vehicle><vehicle depart="4876" id="veh_34" type="normal_car"><route edges="-206376283#6 399307903#0" /></vehicle><vehicle depart="8744" id="veh_35" type="normal_car"><route edges="-607540260#1 -312879951" /></vehicle><vehicle depart="9485" id="veh_36" type="normal_car"><route edges="161713699#2 580671790#0" /></vehicle><vehicle depart="7281" id="veh_37" type="electric_car"><route edges="398520217#1 381265874#0 1111777932#1" /></vehicle><vehicle depart="8433" id="veh_38" type="electric_car"><route edges="-724212547 -365559644#1" /></vehicle><vehicle depart="7745" id="veh_39" type="normal_car"><route edges="1235901900#1 39544816#7" /></vehicle><vehicle depart="9789" id="veh_40" type="normal_car"><route edges="-381206058 442243201" /></vehicle><vehicle depart="7499" id="veh_41" type="electric_car"><route edges="382219102#0 -723694302#0" /></vehicle><vehicle depart="7681" id="veh_42" type="normal_car"><route edges="237022768#3 724257958#0" /></vehicle><vehicle depart="10089" id="veh_43" type="normal_car"><route edges="-13430433#2 682258660#2" /></vehicle><vehicle depart="8550" id="veh_44" type="normal_car"><route edges="46418442#10 13302508#5" /></vehicle><vehicle depart="9445" id="veh_45" type="normal_car"><route edges="726106483 357850159" /></vehicle><vehicle depart="8616" id="veh_46" type="normal_car"><route edges="-351589881#1 -399264510#2" /></vehicle><vehicle depart="10594" id="veh_47" type="normal_car"><route edges="161687300#4 -1038616343#1" /></vehicle><vehicle depart="8456" id="veh_48" type="electric_car"><route edges="723737887#0 723335923#0 66681565" /></vehicle><vehicle depart="8351" id="veh_49" type="normal_car"><route edges="-758676912#0 382219102#1" /></vehicle><vehicle depart="10546" id="veh_50" type="electric_car"><route edges="-13389700#0 780407805" /></vehicle><vehicle depart="7692" id="veh_51" type="normal_car"><route edges="-491454887#0 357850159" /></vehicle><vehicle depart="9619" id="veh_52" type="normal_car"><route edges="399294718#2 255495042#2" /></vehicle><vehicle depart="10169" id="veh_53" type="normal_car"><route edges="572789151#2 715732151" /></vehicle><vehicle depart="10427" id="veh_54" type="normal_car"><route edges="185948941#1 279667493#1" /></vehicle><vehicle depart="9101" id="veh_55" type="normal_car"><route edges="-161713861#0 -47480988#0" /></vehicle><vehicle depart="8807" id="veh_56" type="normal_car"><route edges="648606648 -1188625600#1" /></vehicle><vehicle depart="12549" id="veh_57" type="electric_car"><route edges="1209491448#1 608204516#1 -13346833#4" /></vehicle><vehicle depart="11118" id="veh_58" type="normal_car"><route edges="841308602#1 24716855" /></vehicle><vehicle depart="10984" id="veh_59" type="normal_car"><route edges="398812518#0 -161716750#0" /></vehicle><vehicle depart="11564" id="veh_60" type="normal_car"><route edges="-399313017 -399264590#1" /></vehicle><vehicle depart="13732" id="veh_61" type="electric_car"><route edges="-185747928#2 161689817#0 381196472" /></vehicle><vehicle depart="11501" id="veh_62" type="electric_car"><route edges="761164378#1 -186076398#0 399313034#0" /></vehicle><vehicle depart="12756" id="veh_63" type="electric_car"><route edges="1235919541 13436062 -1095264566" /></vehicle><vehicle depart="14373" id="veh_64" type="electric_car"><route edges="1154285139 607576338#3" /></vehicle><vehicle depart="13654" id="veh_65" type="electric_car"><route edges="13338934#3 399294709#5" /></vehicle><vehicle depart="12355" id="veh_66" type="normal_car"><route edges="209301265 757242099" /></vehicle><vehicle depart="13862" id="veh_67" type="electric_car"><route edges="-539762801#1 13396659#0" /></vehicle><vehicle depart="11429" id="veh_68" type="normal_car"><route edges="487844952#0 29042896" /></vehicle><vehicle depart="12251" id="veh_69" type="normal_car"><route edges="13458280#1 844998231#1" /></vehicle><vehicle depart="11223" id="veh_70" type="normal_car"><route edges="382210638#0 382238932#0" /></vehicle><vehicle depart="14391" id="veh_71" type="electric_car"><route edges="-902872221 161689817#0 -757242099" /></vehicle><vehicle depart="11727" id="veh_72" type="normal_car"><route edges="724229885 -1092875735" /></vehicle><vehicle depart="12847" id="veh_73" type="normal_car"><route edges="186070731#0 876469777" /></vehicle><vehicle depart="13778" id="veh_74" type="electric_car"><route edges="381239976 442243210#1 715783630#0" /></vehicle><vehicle depart="11829" id="veh_75" type="electric_car"><route edges="510562261#7 186076384#1" /></vehicle><vehicle depart="14347" id="veh_76" type="electric_car"><route edges="842711590 161689817#0 1183932566" /></vehicle><vehicle depart="12283" id="veh_77" type="electric_car"><route edges="48331373#6 -398740643#1" /></vehicle><vehicle depart="11524" id="veh_78" type="normal_car"><route edges="185948963 847194760" /></vehicle><vehicle depart="13102" id="veh_79" type="normal_car"><route edges="-1148158083#1 -495562250#0" /></vehicle><vehicle depart="13960" id="veh_80" type="normal_car"><route edges="-379631509 -384314091#2" /></vehicle><vehicle depart="12170" id="veh_81" type="normal_car"><route edges="523623581#1 -1165587572#1" /></vehicle><vehicle depart="14109" id="veh_82" type="normal_car"><route edges="186070701#2 791980468" /></vehicle><vehicle depart="11728" id="veh_83" type="electric_car"><route edges="-1086973165 -309136425" /></vehicle><vehicle depart="13436" id="veh_84" type="electric_car"><route edges="398423723#1 -1125394688" /></vehicle><vehicle depart="13217" id="veh_85" type="normal_car"><route edges="-13440691#3 723376748" /></vehicle><vehicle depart="12539" id="veh_86" type="electric_car"><route edges="-398504274 -398812994#3 1209491448#12" /></vehicle><vehicle depart="12803" id="veh_87" type="electric_car"><route edges="-791605781#2 442243210#1 1159328971" /></vehicle><vehicle depart="12647" id="veh_88" type="normal_car"><route edges="-405169148 399293771#0" /></vehicle><vehicle depart="12761" id="veh_89" type="normal_car"><route edges="399294709#1 1342431790#1" /></vehicle><vehicle depart="14281" id="veh_90" type="normal_car"><route edges="398735946#0 -13387451#0" /></vehicle><vehicle depart="16606" id="veh_91" type="electric_car"><route edges="161716750#4 1051478559#1" /></vehicle><vehicle depart="17001" id="veh_92" type="electric_car"><route edges="1235901881#1 1271555499 161689967#1" /></vehicle><vehicle depart="15671" id="veh_93" type="electric_car"><route edges="842965129 -186076398#0 907180984#1" /></vehicle><vehicle depart="14449" id="veh_94" type="electric_car"><route edges="770401817 826377636#1" /></vehicle><vehicle depart="16908" id="veh_95" type="electric_car"><route edges="398741323#1 -13334660" /></vehicle><vehicle depart="17990" id="veh_96" type="normal_car"><route edges="779554781#0 725889766" /></vehicle><vehicle depart="16489" id="veh_97" type="electric_car"><route edges="161716023#3 -13459149#1" /></vehicle><vehicle depart="16032" id="veh_98" type="normal_car"><route edges="712249429 -13379632#6" /></vehicle><vehicle depart="14995" id="veh_99" type="normal_car"><route edges="-381243038#14 399274286" /></vehicle><vehicle depart="14511" id="veh_100" type="electric_car"><route edges="-842970099 1131137819#0" /></vehicle><vehicle depart="15061" id="veh_101" type="normal_car"><route edges="351589881#1 -167416480#0" /></vehicle><vehicle depart="16596" id="veh_102" type="normal_car"><route edges="-399301773 -381451678#0" /></vehicle><vehicle depart="17628" id="veh_103" type="electric_car"><route edges="712252239 1271555499 907943852#0" /></vehicle><vehicle depart="17472" id="veh_104" type="normal_car"><route edges="844917303#1 399306017" /></vehicle><vehicle depart="18683" id="veh_105" type="electric_car"><route edges="902962856 723319424" /></vehicle><vehicle depart="19934" id="veh_106" type="normal_car"><route edges="120112151 -185948958#0" /></vehicle><vehicle depart="19444" id="veh_107" type="normal_car"><route edges="1297199171#0 1027553379#0" /></vehicle><vehicle depart="22459" id="veh_108" type="electric_car"><route edges="-723694306#2 608204516#1 39009151" /></vehicle><vehicle depart="24793" id="veh_109" type="electric_car"><route edges="-161689816#3 723693732" /></vehicle><vehicle depart="23189" id="veh_110" type="normal_car"><route edges="255495064#0 -1209491415#11" /></vehicle><vehicle depart="24719" id="veh_111" type="normal_car"><route edges="982717991 -399264527#1" /></vehicle><vehicle depart="22219" id="veh_112" type="normal_car"><route edges="-161716057#10 770526273#0" /></vehicle><vehicle depart="22347" id="veh_113" type="normal_car"><route edges="723752554#1 1132018787#0" /></vehicle><vehicle depart="21861" id="veh_114" type="electric_car"><route edges="161689804#1 844168538" /></vehicle><vehicle depart="23913" id="veh_115" type="normal_car"><route edges="-1209491451 689526519#2" /></vehicle><vehicle depart="24096" id="veh_116" type="normal_car"><route edges="904027057 747511197#3" /></vehicle><vehicle depart="22305" id="veh_117" type="normal_car"><route edges="399292972#1 1065478056" /></vehicle><vehicle depart="23719" id="veh_118" type="electric_car"><route edges="-121934301#2 13436062 725813278" /></vehicle><vehicle depart="22598" id="veh_119" type="normal_car"><route edges="-13349797#0 -13459149#1" /></vehicle><vehicle depart="22538" id="veh_120" type="normal_car"><route edges="-399276111#0 723797054#4" /></vehicle><vehicle depart="24312" id="veh_121" type="normal_car"><route edges="-724234901 -165518739#1" /></vehicle><vehicle depart="25049" id="veh_122" type="normal_car"><route edges="843379728#1 826872605#1" /></vehicle><vehicle depart="22501" id="veh_123" type="electric_car"><route edges="358727540#1 608204516#1 -826872610#0" /></vehicle><vehicle depart="23926" id="veh_124" type="normal_car"><route edges="-768091604#1 -13323728#6" /></vehicle><vehicle depart="24066" id="veh_125" type="normal_car"><route edges="768091603#0 165518742#9" /></vehicle><vehicle depart="25149" id="veh_126" type="normal_car"><route edges="791759106#2 -380942934" /></vehicle><vehicle depart="21748" id="veh_127" type="normal_car"><route edges="-442243209#1 -726135819" /></vehicle><vehicle depart="24939" id="veh_128" type="normal_car"><route edges="579093555#1 904558303" /></vehicle><vehicle depart="21858" id="veh_129" type="normal_car"><route edges="-398810290 -725797672" /></vehicle><vehicle depart="22554" id="veh_130" type="normal_car"><route edges="104863454#0 604086177#4" /></vehicle><vehicle depart="22958" id="veh_131" type="electric_car"><route edges="-46418442#4 237022761#3" /></vehicle><vehicle depart="23759" id="veh_132" type="electric_car"><route edges="-13279090#0 405178810" /></vehicle><vehicle depart="21899" id="veh_133" type="normal_car"><route edges="-902870833 -810696494" /></vehicle><vehicle depart="21808" id="veh_134" type="normal_car"><route edges="-13439548#1 1058402925" /></vehicle><vehicle depart="22820" id="veh_135" type="normal_car"><route edges="-13290081#1 399238804#0" /></vehicle><vehicle depart="24658" id="veh_136" type="normal_car"><route edges="186076383#2 -165518733#15" /></vehicle><vehicle depart="23778" id="veh_137" type="normal_car"><route edges="-399284169 -486582813" /></vehicle><vehicle depart="24614" id="veh_138" type="electric_car"><route edges="-1036765062#1 381265874#0 1053246342" /></vehicle><vehicle depart="23019" id="veh_139" type="normal_car"><route edges="-606916030#0 161707993" /></vehicle><vehicle depart="22944" id="veh_140" type="electric_car"><route edges="607576342#1 13346833#1" /></vehicle><vehicle depart="24423" id="veh_141" type="normal_car"><route edges="-161508106#8 39922829#1" /></vehicle><vehicle depart="22234" id="veh_142" type="electric_car"><route edges="161716023#3 351595778#2 967556383#0" /></vehicle><vehicle depart="23190" id="veh_143" type="normal_car"><route edges="161890062#1 603531497#2" /></vehicle><vehicle depart="23835" id="veh_144" type="normal_car"><route edges="723476501 43178505" /></vehicle><vehicle depart="22416" id="veh_145" type="electric_car"><route edges="-13352495#4 836850104" /></vehicle><vehicle depart="23029" id="veh_146" type="normal_car"><route edges="-726780599 -1001746242" /></vehicle><vehicle depart="22879" id="veh_147" type="normal_car"><route edges="-907992121#1 -365559649" /></vehicle><vehicle depart="23018" id="veh_148" type="electric_car"><route edges="172889577#6 148385460#0" /></vehicle><vehicle depart="23371" id="veh_149" type="electric_car"><route edges="23153114#0 673130832#0" /></vehicle><vehicle depart="23288" id="veh_150" type="electric_car"><route edges="712274181 -216562510#2" /></vehicle><vehicle depart="23125" id="veh_151" type="normal_car"><route edges="-13392384#7 -399295047" /></vehicle><vehicle depart="24643" id="veh_152" type="normal_car"><route edges="-726637933 450570666#0" /></vehicle><vehicle depart="25056" id="veh_153" type="normal_car"><route edges="-1363034744#1 399296455#1" /></vehicle><vehicle depart="24826" id="veh_154" type="normal_car"><route edges="-1027553379#6 -1209491415#12" /></vehicle><vehicle depart="21859" id="veh_155" type="normal_car"><route edges="-403671814#1 922789538#1" /></vehicle><vehicle depart="22668" id="veh_156" type="normal_car"><route edges="-405164501#1 774608659" /></vehicle><vehicle depart="23811" id="veh_157" type="electric_car"><route edges="148356720 -351595779#2" /></vehicle><vehicle depart="22556" id="veh_158" type="normal_car"><route edges="120111282 76562225" /></vehicle><vehicle depart="23086" id="veh_159" type="normal_car"><route edges="381266660#1 205290641" /></vehicle><vehicle depart="22375" id="veh_160" type="electric_car"><route edges="715779489#1 161716756#4" /></vehicle><vehicle depart="22638" id="veh_161" type="electric_car"><route edges="-508963390 381450301#0" /></vehicle><vehicle depart="23474" id="veh_162" type="normal_car"><route edges="9553643 -739863911" /></vehicle><vehicle depart="24747" id="veh_163" type="normal_car"><route edges="-398812520#1 405172284#1" /></vehicle><vehicle depart="22114" id="veh_164" type="normal_car"><route edges="-1345418280#0 -398812517#1" /></vehicle><vehicle depart="23095" id="veh_165" type="normal_car"><route edges="603568541#0 723705303" /></vehicle><vehicle depart="22541" id="veh_166" type="normal_car"><route edges="-404032784 -844114407#1" /></vehicle><vehicle depart="21662" id="veh_167" type="electric_car"><route edges="381501996#7 1301129301#2" /></vehicle><vehicle depart="21847" id="veh_168" type="normal_car"><route edges="-399264507#1 -210625486#0" /></vehicle><vehicle depart="23209" id="veh_169" type="normal_car"><route edges="181418899#0 45638572" /></vehicle><vehicle depart="23162" id="veh_170" type="normal_car"><route edges="-13294297 -80690221" /></vehicle><vehicle depart="24094" id="veh_171" type="normal_car"><route edges="-726087326 1209491410" /></vehicle><vehicle depart="23622" id="veh_172" type="normal_car"><route edges="-723760368#6 13428335#1" /></vehicle><vehicle depart="24324" id="veh_173" type="electric_car"><route edges="161841442#1 -13349187" /></vehicle><vehicle depart="24401" id="veh_174" type="normal_car"><route edges="-47971859#1 13346833#7" /></vehicle><vehicle depart="21725" id="veh_175" type="normal_car"><route edges="678463487 205862185" /></vehicle><vehicle depart="23622" id="veh_176" type="normal_car"><route edges="1084077544#6 -911250694" /></vehicle><vehicle depart="23682" id="veh_177" type="normal_car"><route edges="723797055#0 1159900555" /></vehicle><vehicle depart="23179" id="veh_178" type="electric_car"><route edges="1121247208#0 1271555499 -161716078" /></vehicle><vehicle depart="23464" id="veh_179" type="normal_car"><route edges="399294731#1 206359117" /></vehicle><vehicle depart="23865" id="veh_180" type="normal_car"><route edges="148238634 607576339#0" /></vehicle><vehicle depart="23682" id="veh_181" type="normal_car"><route edges="1013661571#3 755785870" /></vehicle><vehicle depart="22610" id="veh_182" type="electric_car"><route edges="-495105518#0 -186076398#0 -723760368#7" /></vehicle><vehicle depart="23043" id="veh_183" type="normal_car"><route edges="47474543#0 -399259647#0" /></vehicle><vehicle depart="21724" id="veh_184" type="normal_car"><route edges="905529226 -1209491464#0" /></vehicle><vehicle depart="24837" id="veh_185" type="normal_car"><route edges="830594406 399264538" /></vehicle><vehicle depart="23780" id="veh_186" type="normal_car"><route edges="-13427700#1 405168266#0" /></vehicle><vehicle depart="22224" id="veh_187" type="electric_car"><route edges="-161716099#3 -405178816" /></vehicle><vehicle depart="21876" id="veh_188" type="normal_car"><route edges="779554782#0 167420333" /></vehicle><vehicle depart="22998" id="veh_189" type="normal_car"><route edges="1084077523 167413476#0" /></vehicle><vehicle depart="23377" id="veh_190" type="normal_car"><route edges="-717185280#0 398782315" /></vehicle><vehicle depart="23090" id="veh_191" type="normal_car"><route edges="-581694389 -961951113" /></vehicle><vehicle depart="24582" id="veh_192" type="normal_car"><route edges="-399284198#0 -47573442#0" /></vehicle><vehicle depart="24469" id="veh_193" type="normal_car"><route edges="399311984#0 -47798518#2" /></vehicle><vehicle depart="22200" id="veh_194" type="electric_car"><route edges="489492064 390225963#0" /></vehicle><vehicle depart="22783" id="veh_195" type="normal_car"><route edges="-727454972#1 13343359#1" /></vehicle><vehicle depart="22480" id="veh_196" type="normal_car"><route edges="715752274 -130330866#1" /></vehicle><vehicle depart="22560" id="veh_197" type="normal_car"><route edges="-398797084#0 1002583627#1" /></vehicle><vehicle depart="24620" id="veh_198" type="normal_car"><route edges="-399279689#2 -842970098#0" /></vehicle><vehicle depart="22301" id="veh_199" type="normal_car"><route edges="-789130196 -399276086#1" /></vehicle><vehicle depart="22331" id="veh_200" type="normal_car"><route edges="-758693380#1 -844141565" /></vehicle><vehicle depart="21735" id="veh_201" type="normal_car"><route edges="161830827#0 -904587194#0" /></vehicle><vehicle depart="25077" id="veh_202" type="normal_car"><route edges="255495049 -1083202535#0" /></vehicle><vehicle depart="22121" id="veh_203" type="normal_car"><route edges="148385896 -398537198#2" /></vehicle><vehicle depart="23669" id="veh_204" type="electric_car"><route edges="-1195002933 399306093#1" /></vehicle><vehicle depart="24493" id="veh_205" type="normal_car"><route edges="209234902#0 -13374300#1" /></vehicle><vehicle depart="23668" id="veh_206" type="normal_car"><route edges="-1209491490 -607568622" /></vehicle><vehicle depart="24521" id="veh_207" type="electric_car"><route edges="43178505 -765037694" /></vehicle><vehicle depart="24992" id="veh_208" type="normal_car"><route edges="606916029#3 -725838080" /></vehicle><vehicle depart="22803" id="veh_209" type="normal_car"><route edges="167414071#0 -606916029#5" /></vehicle><vehicle depart="22924" id="veh_210" type="normal_car"><route edges="-724229885 245933786#1" /></vehicle><vehicle depart="24255" id="veh_211" type="normal_car"><route edges="-347283858#1 -491454656#1" /></vehicle><vehicle depart="21677" id="veh_212" type="normal_car"><route edges="210625486#0 -206376283#3" /></vehicle><vehicle depart="23166" id="veh_213" type="normal_car"><route edges="13383095#1 911204518" /></vehicle><vehicle depart="22710" id="veh_214" type="electric_car"><route edges="905758278 -719632107" /></vehicle><vehicle depart="23619" id="veh_215" type="normal_car"><route edges="-255498799#1 -717031077" /></vehicle><vehicle depart="25021" id="veh_216" type="normal_car"><route edges="1012945094#1 -13415330#2" /></vehicle><vehicle depart="23402" id="veh_217" type="normal_car"><route edges="-885029506 -168953778#2" /></vehicle><vehicle depart="21772" id="veh_218" type="normal_car"><route edges="-521802279#13 -161929845#1" /></vehicle><vehicle depart="24421" id="veh_219" type="normal_car"><route edges="-206420472 13345592#2" /></vehicle><vehicle depart="25119" id="veh_220" type="electric_car"><route edges="13430430 -727993824" /></vehicle><vehicle depart="24697" id="veh_221" type="normal_car"><route edges="1317849300 399311984#0" /></vehicle><vehicle depart="21849" id="veh_222" type="normal_car"><route edges="237022761#9 -876429565" /></vehicle><vehicle depart="22464" id="veh_223" type="normal_car"><route edges="-1301129303#1 -884996754" /></vehicle><vehicle depart="24312" id="veh_224" type="normal_car"><route edges="1360143312 -842921754#2" /></vehicle><vehicle depart="24184" id="veh_225" type="normal_car"><route edges="161707982#1 726127660" /></vehicle><vehicle depart="22052" id="veh_226" type="electric_car"><route edges="843068597 161689817#0 797863603#2" /></vehicle><vehicle depart="21800" id="veh_227" type="normal_car"><route edges="1059473753 185937861#3" /></vehicle><vehicle depart="24102" id="veh_228" type="electric_car"><route edges="-203191652 255497617#0" /></vehicle><vehicle depart="23954" id="veh_229" type="normal_car"><route edges="1042987209 -606916029#3" /></vehicle><vehicle depart="24098" id="veh_230" type="normal_car"><route edges="23153115#1 165518742#4" /></vehicle><vehicle depart="24773" id="veh_231" type="normal_car"><route edges="839327043 -13325430#3" /></vehicle><vehicle depart="24452" id="veh_232" type="electric_car"><route edges="13323728#9 -398735952#2" /></vehicle><vehicle depart="23931" id="veh_233" type="normal_car"><route edges="723326351 -606916029#0" /></vehicle><vehicle depart="22502" id="veh_234" type="electric_car"><route edges="-13350363#3 442243210#1 756866667" /></vehicle><vehicle depart="25156" id="veh_235" type="electric_car"><route edges="399238814#0 351595778#2 13406473#0" /></vehicle><vehicle depart="21763" id="veh_236" type="normal_car"><route edges="774162800#2 398733942#1" /></vehicle><vehicle depart="23219" id="veh_237" type="normal_car"><route edges="774625968 161689824#5" /></vehicle><vehicle depart="25526" id="veh_238" type="electric_car"><route edges="161689804#11 -381482564#1" /></vehicle><vehicle depart="25829" id="veh_239" type="normal_car"><route edges="442243198 1125394688" /></vehicle><vehicle depart="28786" id="veh_240" type="normal_car"><route edges="721834884 -399264537#3" /></vehicle><vehicle depart="27987" id="veh_241" type="electric_car"><route edges="-442243216#3 234667498#2" /></vehicle><vehicle depart="25978" id="veh_242" type="normal_car"><route edges="-119128492 727443894" /></vehicle><vehicle depart="28585" id="veh_243" type="electric_car"><route edges="847078182#1 -399292971#2" /></vehicle><vehicle depart="25338" id="veh_244" type="normal_car"><route edges="-726135818 161710209#3" /></vehicle><vehicle depart="26467" id="veh_245" type="normal_car"><route edges="906375540 773904092#1" /></vehicle><vehicle depart="27145" id="veh_246" type="normal_car"><route edges="399313031 -13353869#1" /></vehicle><vehicle depart="25845" id="veh_247" type="electric_car"><route edges="-255621801#1 46418442#16" /></vehicle><vehicle depart="26195" id="veh_248" type="normal_car"><route edges="1055588389#3 148252671" /></vehicle><vehicle depart="25452" id="veh_249" type="normal_car"><route edges="-235167148 -382248461#0" /></vehicle><vehicle depart="25617" id="veh_250" type="normal_car"><route edges="399296420 399306032#2" /></vehicle><vehicle depart="27072" id="veh_251" type="normal_car"><route edges="1111525991#0 724257959" /></vehicle><vehicle depart="25747" id="veh_252" type="electric_car"><route edges="185948985#1 608204516#1 381266660#2" /></vehicle><vehicle depart="25497" id="veh_253" type="normal_car"><route edges="-390225964 -13433490#3" /></vehicle><vehicle depart="28295" id="veh_254" type="normal_car"><route edges="-1346744680 826377636#1" /></vehicle><vehicle depart="25375" id="veh_255" type="normal_car"><route edges="161716062#1 -491454886#0" /></vehicle><vehicle depart="26735" id="veh_256" type="normal_car"><route edges="-836850098 165521626#0" /></vehicle><vehicle depart="27060" id="veh_257" type="normal_car"><route edges="186076388#0 842945967#0" /></vehicle><vehicle depart="26860" id="veh_258" type="normal_car"><route edges="398683386#0 399313009#1" /></vehicle><vehicle depart="25226" id="veh_259" type="electric_car"><route edges="-161716735#1 -186076380#1" /></vehicle><vehicle depart="25702" id="veh_260" type="normal_car"><route edges="-13284304#1 -168953778#2" /></vehicle><vehicle depart="26555" id="veh_261" type="normal_car"><route edges="-801520487 130330866#3" /></vehicle><vehicle depart="27741" id="veh_262" type="normal_car"><route edges="-13344342#2 781458061#2" /></vehicle><vehicle depart="27766" id="veh_263" type="electric_car"><route edges="399269728 -1302135213" /></vehicle><vehicle depart="26618" id="veh_264" type="normal_car"><route edges="-312879949#0 -689800760" /></vehicle><vehicle depart="27188" id="veh_265" type="normal_car"><route edges="681828948#0 756866670#0" /></vehicle><vehicle depart="25878" id="veh_266" type="normal_car"><route edges="763567243 1121914435#0" /></vehicle><vehicle depart="26937" id="veh_267" type="electric_car"><route edges="-844191008#0 -907992120#1" /></vehicle><vehicle depart="28021" id="veh_268" type="normal_car"><route edges="-844191008#5 13367577" /></vehicle><vehicle depart="25583" id="veh_269" type="normal_car"><route edges="286995308 -220510577#1" /></vehicle><vehicle depart="28253" id="veh_270" type="electric_car"><route edges="333368331#1 1252344292#2" /></vehicle><vehicle depart="26787" id="veh_271" type="electric_car"><route edges="399293769#0 210626699#1" /></vehicle><vehicle depart="27975" id="veh_272" type="normal_car"><route edges="755189305 148397188#4" /></vehicle><vehicle depart="26360" id="veh_273" type="normal_car"><route edges="181419206 -13470364#1" /></vehicle><vehicle depart="28024" id="veh_274" type="normal_car"><route edges="-771846047 -726067262#1" /></vehicle><vehicle depart="27453" id="veh_275" type="normal_car"><route edges="-842562394 -165518742#7" /></vehicle><vehicle depart="28654" id="veh_276" type="normal_car"><route edges="1096489486#1 521802279#13" /></vehicle><vehicle depart="28050" id="veh_277" type="normal_car"><route edges="161716732#7 841708386" /></vehicle><vehicle depart="27759" id="veh_278" type="normal_car"><route edges="518201969#0 -843379887" /></v