<?xml version='1.0' encoding='utf-8'?>
<additional><tlLogic id="10224707603" offset="116" programID="0" type="static"><phase duration="50" name="NS_Through" state="GGrr" /><phase duration="4" name="NS_Yellow" state="yyrr" /><phase duration="2" name="All_Red_1" state="rrrr" /><phase duration="30" name="EW_Through" state="rrGG" /><phase duration="4" name="EW_Yellow" state="rryy" /><phase duration="2" name="All_Red_2" state="rrrr" /></tlLogic><tlLogic id="10224707605" offset="8" programID="0" type="static"><phase duration="25" name="Group_0_Green" state="Grrrrrr" /><phase duration="3" name="Group_0_Yellow" state="yrrrrrr" /><phase duration="1" name="All_Red_0" state="rrrrrrr" /><phase duration="25" name="Group_1_Green" state="rGrrrrr" /><phase duration="3" name="Group_1_Yellow" state="ryrrrrr" /><phase duration="1" name="All_Red_1" state="rrrrrrr" /><phase duration="20" name="Group_2_Green" state="rrGrrrr" /><phase duration="3" name="Group_2_Yellow" state="rryrrrr" /><phase duration="1" name="All_Red_2" state="rrrrrrr" /><phase duration="20" name="Group_3_Green" state="rrrGrrr" /><phase duration="3" name="Group_3_Yellow" state="rrryrrr" /><phase duration="1" name="All_Red_3" state="rrrrrrr" /></tlLogic><tlLogic id="10224707606" offset="47" programID="0" type="static"><phase duration="25" name="Group_0_Green" state="Grrrrrr" /><phase duration="3" name="Group_0_Yellow" state="yrrrrrr" /><phase duration="1" name="All_Red_0" state="rrrrrrr" /><phase duration="25" name="Group_1_Green" state="rGrrrrr" /><phase duration="3" name="Group_1_Yellow" state="ryrrrrr" /><phase duration="1" name="All_Red_1" state="rrrrrrr" /><phase duration="20" name="Group_2_Green" state="rrGrrrr" /><phase duration="3" name="Group_2_Yellow" state="rryrrrr" /><phase duration="1" name="All_Red_2" state="rrrrrrr" /><phase duration="20" name="Group_3_Green" state="rrrGrrr" /><phase duration="3" name="Group_3_Yellow" state="rrryrrr" /><phase duration="1" name="All_Red_3" state="rrrrrrr" /></tlLogic><tlLogic id="10224707607" offset="3" programID="0" type="static"><phase duration="25" name="Main_Through" state="GGr" /><phase duration="3" name="Main_Yellow" state="yyr" /><phase duration="1" name="All_Red_1" state="rrr" /><phase duration="20" name="Side_Street" state="rrG" /><phase duration="3" name="Side_Yellow" state="rry" /><phase duration="1" name="All_Red_2" state="rrr" /></tlLogic><tlLogic id="10224707611" offset="38" programID="0" type="static"><phase duration="25" name="Group_0_Green" state="Gr" /><phase duration="3" name="Group_0_Yellow" state="yr" /><phase duration="1" name="All_Red_0" state="rr" /><phase duration="25" name="Group_1_Green" state="rG" /><phase duration="3" name="Group_1_Yellow" state="ry" /><phase duration="1" name="All_Red_1" state="rr" /><phase duration="20" name="Group_2_Green" state="rr" /><phase duration="3" name="Group_2_Yellow" state="rr" /><phase duration="1" name="All_Red_2" state="rr" /><phase duration="20" name="Group_3_Green" state="rr" /><phase duration="3" name="Group_3_Yellow" state="rr" /><phase duration="1" name="All_Red_3" state="rr" /></tlLogic><tlLogic id="10224707612" offset="36" programID="0" type="static"><phase duration="35" name="Group_0_Green" state="Grrrrr" /><phase duration="3.5" name="Group_0_Yellow" state="yrrrrr" /><phase duration="1.5" name="All_Red_0" state="rrrrrr" /><phase duration="35" name="Group_1_Green" state="rGrrrr" /><phase duration="3.5" name="Group_1_Yellow" state="ryrrrr" /><phase duration="1.5" name="All_Red_1" state="rrrrrr" /><phase duration="25" name="Group_2_Green" state="rrGrrr" /><phase duration="3.5" name="Group_2_Yellow" state="rryrrr" /><phase duration="1.5" name="All_Red_2" state="rrrrrr" /><phase duration="25" name="Group_3_Green" state="rrrGrr" /><phase duration="3.5" name="Group_3_Yellow" state="rrryrr" /><phase duration="1.5" name="All_Red_3" state="rrrrrr" /></tlLogic><tlLogic id="10224707613" offset="56" programID="0" type="static"><phase duration="25" name="Group_0_Green" state="Grrrrrr" /><phase duration="3" name="Group_0_Yellow" state="yrrrrrr" /><phase duration="1" name="All_Red_0" state="rrrrrrr" /><phase duration="25" name="Group_1_Green" state="rGrrrrr" /><phase duration="3" name="Group_1_Yellow" state="ryrrrrr" /><phase duration="1" name="All_Red_1" state="rrrrrrr" /><phase duration="20" name="Group_2_Green" state="rrGrrrr" /><phase duration="3" name="Group_2_Yellow" state="rryrrrr" /><phase duration="1" name="All_Red_2" state="rrrrrrr" /><phase duration="20" name="Group_3_Green" state="rrrGrrr" /><phase duration="3" name="Group_3_Yellow" state="rrryrrr" /><phase duration="1" name="All_Red_3" state="rrrrrrr" /></tlLogic><tlLogic id="10224707614" offset="55" programID="0" type="static"><phase duration="25" name="Group_0_Green" state="Gr" /><phase duration="3" name="Group_0_Yellow" state="yr" /><phase duration="1" name="All_Red_0" state="rr" /><phase duration="25" name="Group_1_Green" state="rG" /><phase duration="3" name="Group_1_Yellow" state="ry" /><phase duration="1" name="All_Red_1" state="rr" /><phase duration="20" name="Group_2_Green" state="rr" /><phase duration="3" name="Group_2_Yellow" state="rr" /><phase duration="1" name="All_Red_2" state="rr" /><phase duration="20" name="Group_3_Green" state="rr" /><phase duration="3" name="Group_3_Yellow" state="rr" /><phase duration="1" name="All_Red_3" state="rr" /></tlLogic><tlLogic id="10224707615" offset="43" programID="0" type="static"><phase duration="25" name="Group_0_Green" state="Gr" /><phase duration="3" name="Group_0_Yellow" state="yr" /><phase duration="1" name="All_Red_0" state="rr" /><phase duration="25" name="Group_1_Green" state="rG" /><phase duration="3" name="Group_1_Yellow" state="ry" /><phase duration="1" name="All_Red_1" state="rr" /><phase duration="20" name="Group_2_Green" state="rr" /><phase duration="3" name="Group_2_Yellow" state="rr" /><phase duration="1" name="All_Red_2" state="rr" /><phase duration="20" name="Group_3_Green" state="rr" /><phase duration="3" name="Group_3_Yellow" state="rr" /><phase duration="1" name="All_Red_3" state="rr" /></tlLogic><tlLogic id="10224707616" offset="13" programID="0" type="static"><phase duration="25" name="Group_0_Green" state="Grrrrrr" /><phase duration="3" name="Group_0_Yellow" state="yrrrrrr" /><phase duration="1" name="All_Red_0" state="rrrrrrr" /><phase duration="25" name="Group_1_Green" state="rGrrrrr" /><phase duration="3" name="Group_1_Yellow" state="ryrrrrr" /><phase duration="1" name="All_Red_1" state="rrrrrrr" /><phase duration="20" name="Group_2_Green" state="rrGrrrr" /><phase duration="3" name="Group_2_Yellow" state="rryrrrr" /><phase duration="1" name="All_Red_2" state="rrrrrrr" /><phase duration="20" name="Group_3_Green" state="rrrGrrr" /><phase duration="3" name="Group_3_Yellow" state="rrryrrr" /><phase duration="1" name="All_Red_3" state="rrrrrrr" /></tlLogic><tlLogic id="10224712617" offset="0" programID="0" type="static"><phase duration="50" name="Group_0_Green" state="Grrrrrr" /><phase duration="4" name="Group_0_Yellow" state="yrrrrrr" /><phase duration="2" name="All_Red_0" state="rrrrrrr" /><phase duration="50" name="Group_1_Green" state="rGrrrrr" /><phase duration="4" name="Group_1_Yellow" state="ryrrrrr" /><phase duration="2" name="All_Red_1" state="rrrrrrr" /><phase duration="30" name="Group_2_Green" state="rrGrrrr" /><phase duration="4" name="Group_2_Yellow" state="rryrrrr" /><phase duration="2" name="All_Red_2" state="rrrrrrr" /><phase duration="30" name="Group_3_Green" state="rrrGrrr" /><phase duration="4" name="Group_3_Yellow" state="rrryrrr" /><phase duration="2" name="All_Red_3" state="rrrrrrr" /></tlLogic><tlLogic id="10224712618" offset="4" programID="0" type="static"><phase duration="25" name="Group_0_Green" state="Gr" /><phase duration="3" name="Group_0_Yellow" state="yr" /><phase duration="1" name="All_Red_0" state="rr" /><phase duration="25" name="Group_1_Green" state="rG" /><phase duration="3" name="Group_1_Yellow" state="ry" /><phase duration="1" name="All_Red_1" state="rr" /><phase duration="20" name="Group_2_Green" state="rr" /><phase duration="3" name="Group_2_Yellow" state="rr" /><phase duration="1" name="All_Red_2" state="rr" /><phase duration="20" name="Group_3_Green" state="rr" /><phase duration="3" name="Group_3_Yellow" state="rr" /><phase duration="1" name="All_Red_3" state="rr" /></tlLogic><tlLogic id="10224712619" offset="5" programID="0" type="static"><phase duration="25" name="Group_0_Green" state="Gr" /><phase duration="3" name="Group_0_Yellow" state="yr" /><phase duration="1" name="All_Red_0" state="rr" /><phase duration="25" name="Group_1_Green" state="rG" /><phase duration="3" name="Group_1_Yellow" state="ry" /><phase duration="1" name="All_Red_1" state="rr" /><phase duration="20" name="Group_2_Green" state="rr" /><phase duration="3" name="Group_2_Yellow" state="rr" /><phase duration="1" name="All_Red_2" state="rr" /><phase duration="20" name="Group_3_Green" state="rr" /><phase duration="3" name="Group_3_Yellow" state="rr" /><phase duration="1" name="All_Red_3" state="rr" /></tlLogic><tlLogic id="10224712620" offset="38" programID="0" type="static"><phase duration="25" name="Group_0_Green" state="Grrrrrr" /><phase duration="3" name="Group_0_Yellow" state="yrrrrrr" /><phase duration="1" name="All_Red_0" state="rrrrrrr" /><phase duration="25" name="Group_1_Green" state="rGrrrrr" /><phase duration="3" name="Group_1_Yellow" state="ryrrrrr" /><phase duration="1" name="All_Red_1" state="rrrrrrr" /><phase duration="20" name="Group_2_Green" state="rrGrrrr" /><phase duration="3" name="Group_2_Yellow" state="rryrrrr" /><phase duration="1" name="All_Red_2" state="rrrrrrr" /><phase duration="20" name="Group_3_Green" state="rrrGrrr" /><phase duration="3" name="Group_3_Yellow" state="rrryrrr" /><phase duration="1" name="All_Red_3" state="rrrrrrr" /></tlLogic><tlLogic id="10224712621" offset="18" programID="0" type="static"><phase duration="8" name="NS_Left" state="GrrrGrrr" /><phase duration="3" name="NS_Left_Yellow" state="yrrryrrr" /><phase duration="1" name="All_Red_1" state="rrrrrrrr" /><phase duration="25" name="NS_Through" state="rGGrrGGr" /><phase duration="3" name="NS_Through_Yellow" state="ryyrryyr" /><phase duration="1" name="All_Red_2" state="rrrrrrrr" /><phase duration="8" name="EW_Left" state="rrrrGrrG" /><phase duration="3" name="EW_Left_Yellow" state="rrrryyyy" /><phase duration="1" name="All_Red_3" state="rrrrrrrr" /><phase duration="20" name="EW_Through" state="rrrGGGrG" /><phase duration="3" name="EW_Through_Yellow" state="rrryyyyy" /><phase duration="1" name="All_Red_4" state="rrrrrrrr" /></tlLogic><tlLogic id="10224712622" offset="42" programID="0" type="static"><phase duration="35" name="Main_Through" state="GGr" /><phase duration="3.5" name="Main_Yellow" state="yyr" /><phase duration="1.5" name="All_Red_1" state="rrr" /><phase duration="25" name="Side_Street" state="rrG" /><phase duration="3.5" name="Side_Yellow" state="rry" /><phase duration="1.5" name="All_Red_2" state="rrr" /></tlLogic><tlLogic id="10224712623" offset="19" programID="0" type="static"><phase duration="25" name="Main_Through" state="GGr" /><phase duration="3" name="Main_Yellow" state="yyr" /><phase duration="1" name="All_Red_1" state="rrr" /><phase duration="20" name="Side_Street" state="rrG" /><phase duration="3" name="Side_Yellow" state="rry" /><phase duration="1" name="All_Red_2" state="rrr" /></tlLogic><tlLogic id="10224712624" offset="15" programID="0" type="static"><phase duration="25" name="Main_Through" state="GGr" /><phase duration="3" name="Main_Yellow" state="yyr" /><phase duration="1" name="All_Red_1" state="rrr" /><phase duration="20" name="Side_Street" state="rrG" /><phase duration="3" name="Side_Yellow" state="rry" /><phase duration="1" name="All_Red_2" state="rrr" /></tlLogic><tlLogic id="10224712627" offset="36" programID="0" type="static"><phase duration="25" name="Group_0_Green" state="Gr" /><phase duration="3" name="Group_0_Yellow" state="yr" /><phase duration="1" name="All_Red_0" state="rr" /><phase duration="25" name="Group_1_Green" state="rG" /><phase duration="3" name="Group_1_Yellow" state="ry" /><phase duration="1" name="All_Red_1" state="rr" /><phase duration="20" name="Group_2_Green" state="rr" /><phase duration="3" name="Group_2_Yellow" state="rr" /><phase duration="1" name="All_Red_2" state="rr" /><phase duration="20" name="Group_3_Green" state="rr" /><phase duration="3" name="Group_3_Yellow" state="rr" /><phase duration="1" name="All_Red_3" state="rr" /></tlLogic><tlLogic id="10224712628" offset="18" programID="0" type="static"><phase duration="25" name="NS_Through" state="GGrr" /><phase duration="3" name="NS_Yellow" state="yyrr" /><phase duration="1" name="All_Red_1" state="rrrr" /><phase duration="20" name="EW_Through" state="rrGG" /><phase duration="3" name="EW_Yellow" state="rryy" /><phase duration="1" name="All_Red_2" state="rrrr" /></tlLogic><tlLogic id="10224712629" offset="0" programID="0" type="static"><phase duration="50" name="Group_0_Green" state="G" /><phase duration="4" name="Group_0_Yellow" state="y" /><phase duration="2" name="All_Red_0" state="r" /><phase duration="50" name="Group_1_Green" state="r" /><phase duration="4" name="Group_1_Yellow" state="r" /><phase duration="2" name="All_Red_1" state="r" /><phase duration="30" name="Group_2_Green" state="r" /><phase duration="4" name="Group_2_Yellow" state="r" /><phase duration="2" name="All_Red_2" state="r" /><phase duration="30" name="Group_3_Green" state="r" /><phase duration="4" name="Group_3_Yellow" state="r" /><phase duration="2" name="All_Red_3" state="r" /></tlLogic><tlLogic id="10229646455" offset="50" programID="0" type="static"><phase duration="25" name="Group_0_Green" state="Grrrrr" /><phase duration="3" name="Group_0_Yellow" state="yrrrrr" /><phase duration="1" name="All_Red_0" state="rrrrrr" /><phase duration="25" name="Group_1_Green" state="rGrrrr" /><phase duration="3" name="Group_1_Yellow" state="ryrrrr" /><phase duration="1" name="All_Red_1" state="rrrrrr" /><phase duration="20" name="Group_2_Green" state="rrGrrr" /><phase duration="3" name="Group_2_Yellow" state="rryrrr" /><phase duration="1" name="All_Red_2" state="rrrrrr" /><phase duration="20" name="Group_3_Green" state="rrrGrr" /><phase duration="3" name="Group_3_Yellow" state="rrryrr" /><phase duration="1" name="All_Red_3" state="rrrrrr" /></tlLogic><tlLogic id="10229646456" offset="57" programID="0" type="static"><phase duration="25" name="Group_0_Green" state="Grrrrr" /><phase duration="3" name="Group_0_Yellow" state="yrrrrr" /><phase duration="1" name="All_Red_0" state="rrrrrr" /><phase duration="25" name="Group_1_Green" state="rGrrrr" /><phase duration="3" name="Group_1_Yellow" state="ryrrrr" /><phase duration="1" name="All_Red_1" state="rrrrrr" /><phase duration="20" name="Group_2_Green" state="rrGrrr" /><phase duration="3" name="Group_2_Yellow" state="rryrrr" /><phase duration="1" name="All_Red_2" state="rrrrrr" /><phase duration="20" name="Group_3_Green" state="rrrGrr" /><phase duration="3" name="Group_3_Yellow" state="rrryrr" /><phase duration="1" name="All_Red_3" state="rrrrrr" /></tlLogic><tlLogic id="10229646457" offset="31" programID="0" type="static"><phase duration="25" name="Group_0_Green" state="Grrrrrr" /><phase duration="3" name="Group_0_Yellow" state="yrrrrrr" /><phase duration="1" name="All_Red_0" state="rrrrrrr" /><phase duration="25" name="Group_1_Green" state="rGrrrrr" /><phase duration="3" name="Group_1_Yellow" state="ryrrrrr" /><phase duration="1" name="All_Red_1" state="rrrrrrr" /><phase duration="20" name="Group_2_Green" state="rrGrrrr" /><phase duration="3" name="Group_2_Yellow" state="rryrrrr" /><phase duration="1" name="All_Red_2" state="rrrrrrr" /><phase duration="20" name="Group_3_Green" state="rrrGrrr" /><phase duration="3" name="Group_3_Yellow" state="rrryrrr" /><phase duration="1" name="All_Red_3" state="rrrrrrr" /></tlLogic><tlLogic id="10229646458" offset="26" programID="0" type="static"><phase duration="25" name="NS_Through" state="GGrr" /><phase duration="3" name="NS_Yellow" state="yyrr" /><phase duration="1" name="All_Red_1" state="rrrr" /><phase duration="20" name="EW_Through" state="rrGG" /><phase duration="3" name="EW_Yellow" state="rryy" /><phase duration="1" name="All_Red_2" state="rrrr" /></tlLogic><tlLogic id="10229646460" offset="1" programID="0" type="static"><phase duration="35" name="NS_Through" state="GGrr" /><phase duration="3.5" name="NS_Yellow" state="yyrr" /><phase duration="1.5" name="All_Red_1" state="rrrr" /><phase duration="25" name="EW_Through" state="rrGG" /><phase duration="3.5" name="EW_Yellow" state="rryy" /><phase duration="1.5" name="All_Red_2" state="rrrr" /></tlLogic><tlLogic id="10229646461" offset="51" programID="0" type="static"><phase duration="25" name="Group_0_Green" state="Gr" /><phase duration="3" name="Group_0_Yellow" state="yr" /><phase duration="1" name="All_Red_0" state="rr" /><phase duration="25" name="Group_1_Green" state="rG" /><phase duration="3" name="Group_1_Yellow" state="ry" /><phase duration="1" name="All_Red_1" state="rr" /><phase duration="20" name="Group_2_Green" state="rr" /><phase duration="3" name="Group_2_Yellow" state="rr" /><phase duration="1" name="All_Red_2" state="rr" /><phase duration="20" name="Group_3_Green" state="rr" /><phase duration="3" name="Group_3_Yellow" state="rr" /><phase duration="1" name="All_Red_3" state="rr" /></tlLogic><tlLogic id="10229646462" offset="49" programID="0" type="static"><phase duration="25" name="Main_Through" state="GGr" /><phase duration="3" name="Main_Yellow" state="yyr" /><phase duration="1" name="All_Red_1" state="rrr" /><phase duration="20" name="Side_Street" state="rrG" /><phase duration="3" name="Side_Yellow" state="rry" /><phase duration="1" name="All_Red_2" state="rrr" /></tlLogic><tlLogic id="10229646463" offset="21" programID="0" type="static"><phase duration="25" name="Group_0_Green" state="Grrrr" /><phase duration="3" name="Group_0_Yellow" state="yrrrr" /><phase duration="1" name="All_Red_0" state="rrrrr" /><phase duration="25" name="Group_1_Green" state="rGrrr" /><phase duration="3" name="Group_1_Yellow" state="ryrrr" /><phase duration="1" name="All_Red_1" state="rrrrr" /><phase duration="20" name="Group_2_Green" state="rrGrr" /><phase duration="3" name="Group_2_Yellow" state="rryrr" /><phase duration="1" name="All_Red_2" state="rrrrr" /><phase duration="20" name="Group_3_Green" state="rrrGr" /><phase duration="3" name="Group_3_Yellow" state="rrryr" /><phase duration="1" name="All_Red_3" state="rrrrr" /></tlLogic><tlLogic id="10229646464" offset="40" programID="0" type="static"><phase duration="25" name="Group_0_Green" state="Grrrr" /><phase duration="3" name="Group_0_Yellow" state="yrrrr" /><phase duration="1" name="All_Red_0" state="rrrrr" /><phase duration="25" name="Group_1_Green" state="rGrrr" /><phase duration="3" name="Group_1_Yellow" state="ryrrr" /><phase duration="1" name="All_Red_1" state="rrrrr" /><phase duration="20" name="Group_2_Green" state="rrGrr" /><phase duration="3" name="Group_2_Yellow" state="rryrr" /><phase duration="1" name="All_Red_2" state="rrrrr" /><phase duration="20" name="Group_3_Green" state="rrrGr" /><phase duration="3" name="Group_3_Yellow" state="rrryr" /><phase duration="1" name="All_Red_3" state="rrrrr" /></tlLogic><tlLogic id="10229646465" offset="0" programID="0" type="static"><phase duration="50" name="Group_0_Green" state="Gr" /><phase duration="4" name="Group_0_Yellow" state="yr" /><phase duration="2" name="All_Red_0" state="rr" /><phase duration="50" name="Group_1_Green" state="rG" /><phase duration="4" name="Group_1_Yellow" state="ry" /><phase duration="2" name="All_Red_1" state="rr" /><phase duration="30" name="Group_2_Green" state="rr" /><phase duration="4" name="Group_2_Yellow" state="rr" /><phase duration="2" name="All_Red_2" state="rr" /><phase duration="30" name="Group_3_Green" state="rr" /><phase duration="4" name="Group_3_Yellow" state="rr" /><phase duration="2" name="All_Red_3" state="rr" /></tlLogic><tlLogic id="10229646466" offset="35" programID="0" type="static"><phase duration="25" name="Main_Through" state="GGr" /><phase duration="3" name="Main_Yellow" state="yyr" /><phase duration="1" name="All_Red_1" state="rrr" /><phase duration="20" name="Side_Street" state="rrG" /><phase duration="3" name="Side_Yellow" state="rry" /><phase duration="1" name="All_Red_2" state="rrr" /></tlLogic><tlLogic id="10229646467" offset="52" programID="0" type="static"><phase duration="25" name="Main_Through" state="GGr" /><phase duration="3" name="Main_Yellow" state="yyr" /><phase duration="1" name="All_Red_1" state="rrr" /><phase duration="20" name="Side_Street" state="rrG" /><phase duration="3" name="Side_Yellow" state="rry" /><phase duration="1" name="All_Red_2" state="rrr" /></tlLogic><tlLogic id="10229646468" offset="41" programID="0" type="static"><phase duration="25" name="Group_0_Green" state="Gr" /><phase duration="3" name="Group_0_Yellow" state="yr" /><phase duration="1" name="All_Red_0" state="rr" /><phase duration="25" name="Group_1_Green" state="rG" /><phase duration="3" name="Group_1_Yellow" state="ry" /><phase duration="1" name="All_Red_1" state="rr" /><phase duration="20" name="Group_2_Green" state="rr" /><phase duration="3" name="Group_2_Yellow" state="rr" /><phase duration="1" name="All_Red_2" state="rr" /><phase duration="20" name="Group_3_Green" state="rr" /><phase duration="3" name="Group_3_Yellow" state="rr" /><phase duration="1" name="All_Red_3" state="rr" /></tlLogic><tlLogic id="10229646469" offset="36" programID="0" type="static"><phase duration="25" name="Group_0_Green" state="Grrrr" /><phase duration="3" name="Group_0_Yellow" state="yrrrr" /><phase duration="1" name="All_Red_0" state="rrrrr" /><phase duration="25" name="Group_1_Green" state="rGrrr" /><phase duration="3" name="Group_1_Yellow" state="ryrrr" /><phase duration="1" name="All_Red_1" state="rrrrr" /><phase duration="20" name="Group_2_Green" state="rrGrr" /><phase duration="3" name="Group_2_Yellow" state="rryrr" /><phase duration="1" name="All_Red_2" state="rrrrr" /><phase duration="20" name="Group_3_Green" state="rrrGr" /><phase duration="3" name="Group_3_Yellow" state="rrryr" /><phase duration="1" name="All_Red_3" state="rrrrr" /></tlLogic><tlLogic id="10229646470" offset="12" programID="0" type="static"><phase duration="35" name="Group_0_Green" state="Gr" /><phase duration="3.5" name="Group_0_Yellow" state="yr" /><phase duration="1.5" name="All_Red_0" state="rr" /><phase duration="35" name="Group_1_Green" state="rG" /><phase duration="3.5" name="Group_1_Yellow" state="ry" /><phase duration="1.5" name="All_Red_1" state="rr" /><phase duration="25" name="Group_2_Green" state="rr" /><phase duration="3.5" name="Group_2_Yellow" state="rr" /><phase duration="1.5" name="All_Red_2" state="rr" /><phase duration="25" name="Group_3_Green" state="rr" /><phase duration="3.5" name="Group_3_Yellow" state="rr" /><phase duration="1.5" name="All_Red_3" state="rr" /></tlLogic><tlLogic id="10229646471" offset="1" programID="0" type="static"><phase duration="25" name="Main_Through" state="GGr" /><phase duration="3" name="Main_Yellow" state="yyr" /><phase duration="1" name="All_Red_1" state="rrr" /><phase duration="20" name="Side_Street" state="rrG" /><phase duration="3" name="Side_Yellow" state="rry" /><phase duration="1" name="All_Red_2" state="rrr" /></tlLogic><tlLogic id="10229646472" offset="31" programID="0" type="static"><phase duration="25" name="Group_0_Green" state="Grrrr" /><phase duration="3" name="Group_0_Yellow" state="yrrrr" /><phase duration="1" name="All_Red_0" state="rrrrr" /><phase duration="25" name="Group_1_Green" state="rGrrr" /><phase duration="3" name="Group_1_Yellow" state="ryrrr" /><phase duration="1" name="All_Red_1" state="rrrrr" /><phase duration="20" name="Group_2_Green" state="rrGrr" /><phase duration="3" name="Group_2_Yellow" state="rryrr" /><phase duration="1" name="All_Red_2" state="rrrrr" /><phase duration="20" name="Group_3_Green" state="rrrGr" /><phase duration="3" name="Group_3_Yellow" state="rrryr" /><phase duration="1" name="All_Red_3" state="rrrrr" /></tlLogic><tlLogic id="10229646473" offset="15" programID="0" type="static"><phase duration="25" name="Group_0_Green" state="Gr" /><phase duration="3" name="Group_0_Yellow" state="yr" /><phase duration="1" name="All_Red_0" state="rr" /><phase duration="25" name="Group_1_Green" state="rG" /><phase duration="3" name="Group_1_Yellow" state="ry" /><phase duration="1" name="All_Red_1" state="rr" /><phase duration="20" name="Group_2_Green" state="rr" /><phase duration="3" name="Group_2_Yellow" state="rr" /><phase duration="1" name="All_Red_2" state="rr" /><phase duration="20" name="Group_3_Green" state="rr" /><phase duration="3" name="Group_3_Yellow" state="rr" /><phase duration="1" name="All_Red_3" state="rr" /></tlLogic><tlLogic id="10229646474" offset="21" programID="0" type="static"><phase duration="25" name="Main_Through" state="GGr" /><phase duration="3" name="Main_Yellow" state="yyr" /><phase duration="1" name="All_Red_1" state="rrr" /><phase duration="20" name="Side_Street" state="rrG" /><phase duration="3" name="Side_Yellow" state="rry" /><phase duration="1" name="All_Red_2" state="rrr" /></tlLogic><tlLogic id="10229646476" offset="0" programID="0" type="static"><phase duration="50" name="Group_0_Green" state="Gr" /><phase duration="4" name="Group_0_Yellow" state="yr" /><phase duration="2" name="All_Red_0" state="rr" /><phase duration="50" name="Group_1_Green" state="rG" /><phase duration="4" name="Group_1_Yellow" state="ry" /><phase duration="2" name="All_Red_1" state="rr" /><phase duration="30" name="Group_2_Green" state="rr" /><phase duration="4" name="Group_2_Yellow" state="rr" /><phase duration="2" name="All_Red_2" state="rr" /><phase duration="30" name="Group_3_Green" state="rr" /><phase duration="4" name="Group_3_Yellow" state="rr" /><phase duration="2" name="All_Red_3" state="rr" /></tlLogic><tlLogic id="10229646477" offset="57" programID="0" type="static"><phase duration="25" name="Main_Through" state="GGr" /><phase duration="3" name="Main_Yellow" state="yyr" /><phase duration="1" name="All_Red_1" state="rrr" /><phase duration="20" name="Side_Street" state="rrG" /><phase duration="3" name="Side_Yellow" state="rry" /><phase duration="1" name="All_Red_2" state="rrr" /></tlLogic><tlLogic id="10229646478" offset="30" programID="0" type="static"><phase duration="25" name="Group_0_Green" state="Gr" /><phase duration="3" name="Group_0_Yellow" state="yr" /><phase duration="1" name="All_Red_0" state="rr" /><phase duration="25" name="Group_1_Green" state="rG" /><phase duration="3" name="Group_1_Yellow" state="ry" /><phase duration="1" name="All_Red_1" state="rr" /><phase duration="20" name="Group_2_Green" state="rr" /><phase duration="3" name="Group_2_Yellow" state="rr" /><phase duration="1" name="All_Red_2" state="rr" /><phase duration="20" name="Group_3_Green" state="rr" /><phase duration="3" name="Group_3_Yellow" state="rr" /><phase duration="1" name="All_Red_3" state="rr" /></tlLogic><tlLogic id="10229646479" offset="6" programID="0" type="static"><phase duration="25" name="Main_Through" state="GGr" /><phase duration="3" name="Main_Yellow" state="yyr" /><phase duration="1" name="All_Red_1" state="rrr" /><phase duration="20" name="Side_Street" state="rrG" /><phase duration="3" name="Side_Yellow" state="rry" /><phase duration="1" name="All_Red_2" state="rrr" /></tlLogic><tlLogic id="10229646480" offset="17" programID="0" type="static"><phase duration="25" name="Group_0_Green" state="Gr" /><phase duration="3" name="Group_0_Yellow" state="yr" /><phase duration="1" name="All_Red_0" state="rr" /><phase duration="25" name="Group_1_Green" state="rG" /><phase duration="3" name="Group_1_Yellow" state="ry" /><phase duration="1" name="All_Red_1" state="rr" /><phase duration="20" name="Group_2_Green" state="rr" /><phase duration="3" name="Group_2_Yellow" state="rr" /><phase duration="1" name="All_Red_2" state="rr" /><phase duration="20" name="Group_3_Green" state="rr" /><phase duration="3" name="Group_3_Yellow" state="rr" /><phase duration="1" name="All_Red_3" state="rr" /></tlLogic><tlLogic id="10229646481" offset="11" programID="0" type="static"><phase duration="35" name="Group_0_Green" state="Gr" /><phase duration="3.5" name="Group_0_Yellow" state="yr" /><phase duration="1.5" name="All_Red_0" state="rr" /><phase duration="35" name="Group_1_Green" state="rG" /><phase duration="3.5" name="Group_1_Yellow" state="ry" /><phase duration="1.5" name="All_Red_1" state="rr" /><phase duration="25" name="Group_2_Green" state="rr" /><phase duration="3.5" name="Group_2_Yellow" state="rr" /><phase duration="1.5" name="All_Red_2" state="rr" /><phase duration="25" name="Group_3_Green" state="rr" /><phase duration="3.5" name="Group_3_Yellow" state="rr" /><phase duration="1.5" name="All_Red_3" state="rr" /></tlLogic><tlLogic id="10229646482" offset="31" programID="0" type="static"><phase duration="25" name="Group_0_Green" state="Grrrr" /><phase duration="3" name="Group_0_Yellow" state="yrrrr" /><phase duration="1" name="All_Red_0" state="rrrrr" /><phase duration="25" name="Group_1_Green" state="rGrrr" /><phase duration="3" name="Group_1_Yellow" state="ryrrr" /><phase duration="1" name="All_Red_1" state="rrrrr" /><phase duration="20" name="Group_2_Green" state="rrGrr" /><phase duration="3" name="Group_2_Yellow" state="rryrr" /><phase duration="1" name="All_Red_2" state="rrrrr" /><phase duration="20" name="Group_3_Green" state="rrrGr" /><phase duration="3" name="Group_3_Yellow" state="rrryr" /><phase duration="1" name="All_Red_3" state="rrrrr" /></tlLogic><tlLogic id="10229646483" offset="34" programID="0" type="static"><phase duration="25" name="Group_0_Green" state="Grrrr" /><phase duration="3" name="Group_0_Yellow" state="yrrrr" /><phase duration="1" name="All_Red_0" state="rrrrr" /><phase duration="25" name="Group_1_Green" state="rGrrr" /><phase du